/*--------------------------------*- C++ -*----------------------------------*\
  =========                 |
  \\      /  F ield         | OpenFOAM: The Open Source CFD Toolbox
   \\    /   O peration     | Website:  https://openfoam.org
    \\  /    A nd           | Version:  7
     \\/     M anipulation  |
\*---------------------------------------------------------------------------*/
FoamFile
{
    version     2.0;
    format      ascii;
    class       scalarField;
    location    "0/lagrangian/dsmc";
    object      Ei;
}
// * * * * * * * * * * * * * * * * * * * * * * * * * * * * * * * * * * * * * //


4359
(
6.71606524892053e-21
5.50907883493572e-21
6.09927860255671e-22
2.44646968222321e-21
1.9939981100803e-21
3.56898351697836e-21
5.89588712921346e-21
1.39133915047112e-20
5.66898222368419e-21
7.56771448492096e-21
1.607189322397e-20
1.78788038645095e-21
3.6459580654728e-21
3.36273599986744e-21
5.53500838249962e-21
7.95786455299395e-21
1.39927111681007e-21
2.95950851097976e-21
8.3021470476548e-21
1.40466589320594e-21
5.23400155991621e-21
2.8386117061336e-22
6.49964611515246e-21
1.35040340777931e-21
3.20263331132674e-22
1.79594318393155e-21
5.41742944229826e-21
1.21029711128999e-21
8.50780737893528e-21
2.22056299720397e-21
4.34981683716007e-21
3.5207143285823e-21
3.76962127157145e-21
3.06816152702796e-21
8.0927148555504e-21
1.10357132515375e-20
3.73822565921753e-22
1.21601763501798e-21
2.73224370609622e-22
1.07275874436273e-20
3.37283170118693e-22
7.0589720622105e-21
1.00665343168049e-20
8.81124648096319e-21
1.59289911584705e-20
1.8462166720619e-20
1.44855962699725e-21
5.07385780510453e-21
7.01714910817669e-21
8.70506546458565e-22
6.57622516717178e-21
3.32131105587348e-21
4.91612668565259e-22
4.91649157310388e-22
8.9495458436989e-21
4.29204218158359e-22
3.66144792461187e-21
6.76518623472625e-21
2.7723808412799e-21
1.54460186075817e-22
5.45041905770924e-22
1.09725568234504e-21
4.58720784232779e-21
1.13454950292684e-21
1.59837535235257e-20
9.55504529295871e-22
4.20225248157037e-22
1.42793073265812e-21
4.57553039400619e-21
1.77152241049145e-21
3.72113684569265e-21
7.14609774051036e-21
7.07277153081349e-21
2.50516652986966e-21
2.20607119597746e-21
1.5214863258279e-21
2.59418840471915e-21
1.90747330082526e-21
2.55045651831353e-21
2.27191915905189e-22
9.38433271913059e-21
7.81280880944989e-21
1.53874718719105e-20
6.96333289586049e-21
6.19623712537831e-22
4.15018524965749e-21
8.03496273939869e-22
9.18843917588283e-22
1.77712268872212e-21
3.65814694145109e-21
6.24527856956376e-21
2.92192348078349e-21
4.73264337529869e-21
2.6621553129254e-21
8.12122862722485e-21
6.67327046491979e-21
3.63516100707746e-22
4.62585891610835e-21
1.06358700444702e-20
4.96436794282067e-21
1.84566303678068e-22
3.89002544063021e-21
1.27160500750708e-21
5.09416553032489e-21
2.03543297492207e-22
1.32092733084468e-21
9.79385255421868e-22
3.72350610859588e-21
6.8817178610334e-21
5.39829668272442e-21
1.85302359833843e-21
2.63344498575552e-21
3.87822313235358e-21
8.02114123007625e-21
4.14686286111412e-21
3.33236643026414e-21
7.77148201636438e-21
6.27364329322192e-22
2.09820430862205e-21
9.08111636890138e-21
5.23995023990554e-22
4.1542082378877e-21
8.71912856357801e-22
9.43143344774285e-22
7.74307520483618e-21
3.13333974282839e-21
8.73615592443498e-22
1.70126626918203e-21
8.90471458178761e-21
3.70416061674614e-22
2.40287303128355e-21
1.35769967040128e-21
5.4818994588322e-21
1.57739253020147e-22
3.47287223624731e-21
2.42637035091699e-21
5.97011610488751e-21
1.0132066391534e-20
1.25332286787236e-20
5.56633684973085e-21
4.31779764740405e-22
5.00361302965538e-22
6.65131393162009e-21
4.27119410372675e-21
6.12798323973902e-21
3.23970168308764e-22
1.65205886694047e-21
1.94226711450405e-20
1.66160257831612e-20
5.94296102548297e-22
9.58301861596954e-21
4.72381810992352e-21
5.54507263837598e-21
3.02704410464047e-22
5.03154755691778e-21
7.30231130746156e-21
6.51490701637825e-22
1.21239245371698e-21
8.5671153710636e-22
1.87154906727644e-20
1.29898124721069e-20
8.48496312018105e-21
4.19641081907087e-22
7.52061211499619e-21
3.68521176336837e-21
5.9362002290184e-22
2.66631743651204e-21
5.38691952263756e-21
3.51205079405975e-21
1.71721707318293e-21
1.3779829786242e-20
1.57425544649179e-21
9.10830486703665e-21
2.54221296868403e-21
7.66734333482673e-22
1.21096783368031e-21
1.68573992267777e-21
4.64151897061171e-22
7.04190444106831e-21
3.71919695399039e-21
3.15448284385203e-21
1.88862996346745e-21
2.69238525975741e-21
4.33755560972645e-21
2.2031162608869e-22
3.92160551681646e-21
1.95639227404685e-21
1.78832359357953e-21
1.67251471977526e-22
2.88386273942293e-21
2.36818200570726e-21
7.5827001979332e-21
1.24839922283166e-20
2.6195801962138e-23
1.12871914621052e-20
4.7391056339421e-21
1.24746565365971e-21
1.97194711948438e-21
4.04926208521209e-22
6.5402111624012e-21
7.98438129366577e-22
3.28369458739189e-22
9.7624014407718e-21
3.3249105126734e-22
2.1561651354757e-21
1.16497030764645e-21
1.27266994595557e-20
1.10081040408996e-20
5.8411189891501e-22
7.01554904709139e-21
1.14264680717772e-20
1.69994399793479e-21
1.76354496057403e-21
6.75336648875041e-22
3.51749333649778e-23
1.30626823617642e-21
6.38667668947227e-21
6.08244729540134e-21
1.31157059645757e-21
1.01476592635713e-20
2.34812677372362e-21
1.14778724996319e-21
2.80136993731601e-21
1.61532774483179e-21
2.37689080731027e-21
4.0283463294639e-21
5.41904080097767e-21
1.69439568044995e-22
2.14092687539244e-21
5.51961898489729e-22
1.38842014131261e-20
1.91448334042361e-21
4.87138199652815e-21
6.88130909473728e-22
1.46471561821687e-21
4.01452509905683e-21
4.71248570672323e-21
2.06500399662649e-21
2.14329594815889e-21
3.28807155660779e-22
3.46022368216519e-21
6.65079987638389e-21
4.39228830424695e-21
6.64226033554377e-22
3.61114630155216e-21
2.69380900791118e-22
4.01883503429107e-21
3.34681017425213e-21
1.61217175896167e-22
1.23206277484176e-22
8.57461988016046e-21
4.55174303889175e-21
9.03222561695499e-21
3.43558439497486e-21
1.59502207798408e-20
6.7808116370623e-22
6.76769046607836e-22
9.68291434489771e-21
1.45300197072982e-21
2.42572765523433e-22
2.16595025267848e-21
3.27569988471147e-21
5.50655876724282e-21
9.87147424261851e-22
4.68372500369944e-22
1.55530616385003e-21
1.04515430089219e-21
8.01355456492756e-21
9.65339846243505e-21
1.26948591962374e-20
2.30175530008902e-21
4.99031753073171e-21
3.00587147186815e-21
7.1550390638008e-21
1.26100149332964e-21
3.57302517170949e-21
5.22131697447027e-21
1.31700348852148e-20
4.00129261715325e-22
2.57209129000173e-21
3.66726154561695e-21
7.51529069036897e-22
8.77860653975067e-21
3.74536294159698e-21
1.3821500424572e-20
4.17202727160541e-21
4.19717790952292e-21
2.04584325008449e-21
2.95233451363776e-21
6.40636982689826e-22
1.32117229118647e-21
4.30022929439632e-22
1.01187587235996e-21
2.39710724047811e-21
9.01417875854443e-21
1.176687658395e-20
1.5344736755613e-20
1.00435067135511e-20
1.13482699567585e-20
4.75592675590336e-21
2.42744371379539e-22
8.814087957781e-21
9.791166689797e-22
5.06475059773333e-21
5.22138025599438e-21
1.12725627302753e-21
1.41039235099414e-21
1.33397437388493e-21
4.15105598785542e-21
4.50810549450904e-21
3.80891954191077e-21
1.79788374989178e-21
1.24221674426699e-20
4.7259393652535e-21
3.62290330044963e-21
4.01604448629719e-23
1.6164375126105e-21
1.04775532922986e-20
8.25250831739404e-21
2.18438229004114e-21
2.28494401417251e-21
1.88408787995789e-21
2.52285073151358e-21
3.53026089455978e-21
8.93782057377769e-22
5.16010907832939e-21
3.28280512009713e-21
3.79814090909e-21
9.28773015304447e-22
4.73487194675174e-21
1.0960700015876e-20
2.28353002679926e-21
1.23110800597293e-21
1.7524491857264e-21
9.13443253341853e-21
7.80870918095439e-21
1.28172819359549e-22
2.17546564858355e-21
2.58306832376795e-22
1.27248698606913e-21
4.94497210011446e-21
3.10400225164068e-21
8.37071109343123e-21
3.61852546326163e-21
3.58866178916068e-21
2.14259728871021e-21
4.12795634937358e-21
3.50487713496964e-21
1.27194591314995e-21
2.29649086716382e-21
1.07054920103763e-21
9.13171768412986e-22
2.00641093206058e-21
1.36686935366089e-21
9.10815387053706e-21
2.28986091594052e-21
1.947862990197e-21
3.89505574792734e-21
5.31720680469652e-21
1.06755240959498e-21
4.22190462326281e-23
1.6379380347874e-21
1.75316284358016e-21
8.26259083530474e-22
1.66035848306712e-20
1.76136207155471e-21
2.10598060101171e-21
5.06868873347705e-21
6.65836794466645e-21
1.66327683226352e-21
8.07266333072102e-21
5.96678028256841e-21
1.39635771583058e-20
4.03548969057189e-22
8.69961438374087e-21
1.91223973072009e-22
2.47829122750098e-21
1.35334560283063e-21
2.30631456932476e-21
3.30893962519826e-22
1.12275141649521e-21
8.50025853139668e-22
1.66441975986045e-21
1.12919184215288e-20
2.89665328544821e-21
5.02551301175166e-21
5.80328149971653e-21
2.25512704494627e-21
5.75920656416846e-21
1.02387187479385e-20
4.31201606155292e-21
7.29760847489977e-21
8.26212023132478e-22
4.42936262766506e-21
2.70459484141603e-21
7.01762531116512e-22
9.03866973772847e-21
7.01240652952064e-22
2.19583708071808e-20
2.53355234539413e-21
4.39795664911772e-21
4.99976994243929e-22
2.00204536685933e-21
5.3540927253316e-21
2.53413143106018e-21
2.67597817711824e-21
6.27571388319072e-21
6.00484248361506e-21
1.81504366226064e-21
1.36675216335754e-20
6.50853268858204e-21
3.87322545856304e-21
5.50138250817676e-23
3.82540243933027e-22
4.30867385808031e-21
2.9448455924855e-21
1.33364408024176e-21
1.62114680930618e-20
4.96384158637562e-21
3.40566158847559e-21
3.87445814501169e-23
4.04719015893727e-22
1.7568968080866e-21
1.65538396615145e-20
1.51201062935698e-22
5.61922202329415e-21
1.4817481261249e-21
9.32305252532091e-21
8.89769984780499e-23
7.19560551468816e-21
1.19326716622277e-21
4.62626438113026e-22
1.28443617000624e-20
6.0613526265815e-21
3.39501149847949e-21
8.66200532653786e-22
5.19403285926329e-21
6.51369642063341e-21
2.12039869819081e-21
1.28411786663447e-22
7.83808161356451e-21
1.88537905692285e-21
7.86566372017362e-22
6.26160382236166e-23
5.2479210486397e-22
3.80585805818324e-21
3.06053633669199e-21
3.76336137899656e-21
1.81061362598026e-21
5.7830204401348e-22
2.79618377658233e-22
1.36272001477333e-20
4.35091760075257e-21
8.2407276069647e-22
3.55020948268866e-21
3.57439985011105e-21
4.12425695431186e-22
3.64840464595307e-23
6.55729846561882e-22
4.60818049835611e-21
7.92338547547214e-22
3.53912418538204e-22
1.842033705519e-21
1.21221465858589e-21
2.95295990665353e-21
4.63069842435427e-21
6.59405033257651e-21
2.54967479213003e-21
1.64661351931587e-21
2.83596059298463e-21
3.4049852648213e-21
7.93457060308753e-22
1.84556789717636e-21
3.84005438396431e-21
1.0875189753808e-20
1.24923423824258e-22
1.09596518930747e-21
3.35466578429539e-21
2.49544848851598e-20
4.05649217078664e-21
2.66044429780583e-21
8.715536649204e-21
1.20507573600096e-20
1.21948180775205e-20
3.8875452235167e-21
2.12944724154479e-21
4.92865980309661e-21
1.97375783430046e-23
3.93161153939139e-21
2.49597919272687e-23
1.54978255709512e-22
2.57644662286546e-23
1.84571645276284e-21
2.95405589309183e-21
1.78475777379134e-22
7.50191113406315e-21
2.20324997423366e-21
2.92397210780279e-21
3.45032571916387e-21
7.86803678894744e-21
4.4205675528035e-21
6.71542727334282e-21
1.62868413698182e-21
7.6571724083464e-22
2.07326910404764e-21
1.52223559431465e-20
5.44670641414473e-21
3.07526912552734e-22
1.84330848717116e-21
7.27384542532986e-22
2.43546503937045e-21
1.05034797847863e-21
7.33089612199224e-21
1.20001934505077e-20
1.38556200761241e-22
3.70931112448053e-21
8.79663907932697e-22
7.83854004832445e-22
5.4751774441069e-21
6.54971337518068e-21
2.71122810750534e-21
2.22717286444792e-23
4.50210555185917e-22
1.44631345314554e-21
3.65055832716682e-21
6.00389955363631e-22
6.6939886293881e-23
5.9205627190533e-21
1.64240247696398e-22
1.40637765677265e-21
4.88710205897349e-21
7.47991678200616e-21
1.11334415818892e-21
1.87721305558445e-21
3.1147086261212e-20
1.83871478122634e-21
2.1950762932321e-21
5.24402860838292e-22
1.23441534765344e-21
8.35813067461973e-21
2.31754291767721e-22
3.10248405755406e-21
9.86119318070772e-21
3.05467990356823e-21
1.02623367919647e-20
4.7799785788455e-22
2.58782914843627e-21
4.31809782524604e-21
4.56749167846406e-22
3.23916262985109e-21
1.83119502801908e-20
2.14388893463868e-21
2.51211333499018e-21
3.50023274606647e-22
1.99834189240942e-21
6.76431874433626e-21
9.59047598128945e-21
5.79775251008383e-21
4.43714844575476e-21
9.51129445541879e-22
1.63856989116836e-21
3.35628580930489e-21
2.31733807929671e-21
4.90616811342629e-21
1.74384939862733e-21
6.71846241982883e-21
4.33052851435622e-21
2.35992370488604e-21
1.89249311347267e-22
4.47376173049074e-22
2.93448923240123e-21
1.6050416215275e-21
3.91173653181897e-22
1.21004891469375e-20
1.79582054658461e-21
5.61663914626963e-21
1.82595749479724e-21
3.21747399121567e-21
4.28596363013408e-22
5.50926871706899e-21
3.83822268932476e-21
3.59715093691995e-21
1.27595494104664e-21
4.97864762132975e-22
4.26966381981305e-21
1.68073735918234e-21
5.47409664257029e-21
7.98649590806498e-21
1.28957200370317e-22
1.24556352077755e-20
8.95907915864928e-21
7.86625189406459e-21
2.68519627321754e-21
4.48276879812243e-21
1.25859464064331e-21
3.37349087292833e-21
4.44225590916219e-21
1.25048617982378e-21
3.67089218794093e-21
4.27116349402163e-21
1.07335886747535e-20
9.30567628204329e-21
1.37215559559438e-21
1.51370546964463e-22
1.37343460569284e-23
3.47360227839738e-21
9.52669154958135e-21
1.72973787017786e-21
9.07552898324476e-23
6.21686073934638e-21
2.9349287262438e-21
1.12872774159606e-21
1.79041840721703e-21
3.67372844350189e-21
1.28416664831129e-21
3.88699679153356e-21
3.92613024565333e-21
6.31904919998788e-22
5.22680654827635e-21
4.93369686908411e-21
3.4929208395762e-22
8.26506225098007e-21
4.99826970465093e-21
6.91829851295166e-21
6.5016418846266e-22
7.64333466000584e-22
3.50708428393931e-21
9.86998889225154e-21
8.48264943593262e-23
2.30677190278091e-21
6.65903833861303e-22
1.17035208314643e-20
1.33530347183432e-21
3.4635971826768e-21
1.48051993328945e-21
3.12240928347223e-21
4.82321237456556e-21
3.28725349191168e-21
1.03674406588209e-20
2.77065215578214e-21
2.179155899611e-21
3.36112947397027e-22
5.56369775424264e-23
3.04257878575086e-21
8.14396256643089e-21
1.17587341104692e-21
3.84217923493982e-21
1.53546765810256e-21
2.64091547781503e-21
9.14062842547119e-21
1.75324068307714e-21
1.36019183537871e-20
4.52010209678001e-21
7.63659407189356e-21
1.62086500603324e-21
3.45820152223562e-21
2.65034570931997e-21
7.85548112493028e-22
8.02686435771617e-21
4.49570791943963e-21
5.28117187295739e-22
1.36350803945693e-20
4.89005639830109e-21
1.89617348820091e-21
1.4498353616164e-21
2.85264814028064e-21
7.37014418366118e-21
4.36064831744325e-21
2.43248249113048e-21
6.37826966166277e-22
2.79931485743926e-21
1.48000086028689e-21
1.34904836625164e-21
2.33809711457351e-21
2.54524573290365e-21
1.60231684421058e-21
1.89433432006193e-20
3.89218152393526e-22
4.7035374449907e-21
3.95130709001203e-21
6.2009647613217e-21
4.70515766487375e-22
6.82132583443589e-22
8.40729413586669e-21
9.6816114530411e-22
2.44828866750452e-21
1.74468910796897e-20
2.04518903741957e-21
2.40013026772545e-23
7.73869259343141e-21
1.39344767932039e-20
1.98035741153266e-23
8.24171387097728e-21
1.87007550744423e-21
1.72705698614339e-21
6.24560790700785e-21
6.58466592045027e-22
6.35605692246993e-21
1.43301864668176e-21
1.25154844737285e-20
2.09739975092182e-21
2.84030168731574e-21
1.89140085666001e-21
2.65030802744427e-21
3.19330915937572e-21
3.12227914526566e-21
1.24780156471621e-21
7.77084180690215e-22
1.42327953400438e-21
2.61073678183802e-21
5.58504365247293e-21
3.4215158983879e-21
3.88298767492801e-23
4.78456968607962e-21
2.80717769114392e-21
4.57045762971467e-21
1.82235289660066e-21
6.80329858961914e-21
2.40669067248405e-21
6.16276199769642e-21
2.42106517704684e-20
1.20995293203657e-20
3.98857543836721e-21
1.09387720169586e-21
2.37091691782287e-21
2.69574414703881e-21
1.90421471815774e-21
1.4781574889549e-20
3.42620115430681e-21
1.48859186516622e-20
2.68920865511641e-21
7.93241237207686e-21
1.18974921552462e-21
4.50351850370474e-21
1.61611377516936e-21
6.93748031313363e-21
1.28279400905422e-22
1.58875754798609e-20
2.41928504761023e-21
2.23012966521752e-21
1.05874477953679e-21
7.04019756678077e-21
2.87299561275079e-21
3.51488873470392e-22
3.8740626502362e-21
5.35427742225487e-22
1.71365042873702e-21
1.69477478949513e-21
7.08232565435392e-22
1.16019740929663e-20
5.17415442345921e-21
7.58315625150594e-21
1.8375729268202e-22
1.04358715405733e-20
4.76080519411215e-21
4.31567606878326e-21
2.28467566185229e-22
1.58882468686026e-21
9.69605698773724e-22
4.5007034805808e-21
8.1293903829961e-21
1.02423537421982e-21
2.75549924295263e-22
7.48691186576779e-21
2.86241351283802e-21
1.73291656025904e-21
6.87283642227668e-22
1.02206714791068e-20
2.93117323981322e-21
4.02762175082004e-21
4.23339177446502e-21
5.47779093021299e-22
1.21041686789097e-21
1.12557020829196e-21
1.17475609658564e-20
3.59805849779201e-21
1.40121961643443e-20
1.2834934336472e-22
1.35087231661021e-21
8.35776261839507e-21
2.50178235179733e-21
2.98587972181229e-21
2.22065385441178e-21
1.41576877169385e-21
8.26745237599679e-21
3.7586345943252e-21
8.63020664100287e-21
3.23636639678299e-21
6.28915633198309e-22
1.16401503091256e-20
4.1121478409359e-21
4.01882463680474e-21
6.91294311693392e-21
2.53901269987778e-21
1.48737717587147e-20
1.30760595224686e-20
1.08684376917494e-20
1.00401389248816e-21
8.60700277603447e-21
5.41688905887135e-22
3.85149884381418e-22
1.41272383576068e-21
6.60081672316948e-22
2.23684650810834e-21
5.85604205053516e-21
1.37009477185313e-20
3.41525676788994e-22
3.22904817311921e-22
5.30948096374363e-22
1.38425153422146e-20
7.42686725331288e-21
1.09335054042051e-21
1.16634734319673e-21
2.39162232274873e-21
2.0753328336765e-20
9.1722827241261e-22
7.23388964824097e-21
4.76079980035335e-21
1.68529748629418e-21
8.14389548112641e-21
1.89947557835814e-22
2.15730907011767e-21
9.12142735209524e-21
1.84776569799466e-21
9.7874703012434e-22
1.52474455536831e-20
2.12031607972456e-22
8.43645140939333e-21
1.13276045439504e-21
7.52196743998799e-21
1.69245388868424e-21
3.18960062418747e-23
2.99822512037936e-22
1.32678933983488e-20
8.2824654924466e-21
1.17369006517633e-20
3.46394695789114e-22
1.98088381324255e-20
1.79924147993469e-21
5.87394002647066e-21
5.15442014020285e-21
8.07539639921981e-21
2.57796525091141e-22
9.76891651126899e-22
4.71893986602277e-21
1.32085498803525e-21
9.30227376979123e-22
2.43876894710156e-22
1.28025220857879e-21
1.28259301892831e-22
3.37381474552627e-21
7.72217878093727e-21
8.66951783591545e-22
4.05228147325082e-21
5.38722682940412e-22
2.40616337032001e-21
7.61140210032587e-22
2.48493163706981e-20
3.10979291585937e-21
1.72113306448011e-21
1.51044947683838e-21
6.75764267534356e-21
1.99838536640101e-21
1.85803195676636e-22
6.90609286665153e-22
1.443160198793e-21
1.28658351625199e-20
4.04612758194703e-21
6.61893442811867e-22
4.53286959185573e-21
3.1144569093929e-21
8.32298938313612e-22
4.34804521728059e-21
4.14807781154973e-21
4.05761862258982e-21
9.41212795376272e-21
4.28513051060719e-21
4.78774999145397e-21
4.50327971186076e-22
5.05699081871999e-21
2.56649106677529e-21
3.83038038197481e-23
1.7484605683075e-21
2.0335404946973e-21
2.62654019595526e-21
1.49958146603095e-22
1.18279322586343e-21
6.30482002895465e-21
4.84440189590341e-21
9.98557675822679e-21
3.07875923516251e-21
4.62926866499628e-21
8.4262303231969e-22
6.86431413167711e-21
7.95183728814423e-22
1.79962092318824e-21
8.99290392077118e-21
9.65989055584031e-21
3.83450171281015e-21
9.08353029688584e-21
8.28775060788389e-22
7.78623805097795e-22
1.14277956607331e-21
4.07056900867706e-23
8.65283030261091e-21
5.07074896036353e-21
3.33821957886218e-23
7.84617655066986e-22
2.36135184814532e-21
5.51946620364699e-22
5.08638446803108e-21
1.36759846099313e-21
4.27494694760302e-21
8.33907635061799e-21
2.50444357524495e-21
7.28530978933471e-21
5.39453802473899e-21
1.05129259824504e-21
1.22136992000918e-20
4.94951780312929e-22
1.94099167526507e-22
1.13121860052912e-22
5.24220241507673e-21
3.54938161991249e-22
1.66766224275099e-21
1.43469070361915e-21
1.22204661336792e-20
1.24610852480659e-20
7.285246627653e-22
8.7290910411904e-21
1.68974756961632e-21
9.63256216164304e-22
1.88073164660571e-21
5.250403238397e-22
2.96460932653162e-21
5.6403119915793e-21
3.29223347427087e-22
1.47476330465598e-21
8.66653402868972e-21
1.59238425782166e-21
5.68966830940762e-21
6.71133745904468e-22
3.71905528675521e-21
9.88479506311396e-22
1.14210366072058e-21
6.78986550057392e-21
6.93368633822956e-22
7.45170852552669e-21
3.74221107336526e-22
8.07229485956478e-22
6.15024587258891e-21
7.5712719993334e-21
9.40325614253777e-21
1.61695727675009e-20
2.1435645234456e-21
4.81260391043834e-21
1.20660413554641e-21
1.02041903576832e-20
2.87307626275496e-21
1.50599981129519e-21
7.60832834583973e-21
2.68457476567086e-21
9.73349638310404e-22
8.3003537246753e-21
1.02668615803007e-21
1.90333041296314e-21
1.87643188971873e-20
8.93177153918944e-21
9.95621741532797e-22
2.92695470478062e-22
1.17389325097151e-21
1.14329363165458e-20
6.25932458755299e-21
2.0663949200127e-20
4.9465146796428e-21
5.4836660789432e-21
1.4861637321801e-21
8.40779426916224e-21
1.73948321155309e-20
9.51349337726567e-21
1.26354856143153e-21
3.36746399785309e-21
3.46427054328073e-21
8.81441167205393e-22
4.63570773632734e-21
2.48086284422198e-21
6.65273516031795e-21
2.11850509056104e-21
5.38991549287361e-21
2.48679144626522e-22
1.52722036158907e-22
1.8560958782952e-21
6.07812098175698e-21
4.31099964102205e-21
9.66818330103763e-22
5.89678679363564e-22
5.14084666674067e-21
8.92997836603888e-21
8.83723308164933e-21
1.05165271971589e-20
3.64613688411508e-22
4.20437614425246e-21
1.72113768178699e-20
2.16094318072952e-21
2.84580730904416e-22
7.9658978433758e-21
1.45023561655271e-21
1.93457946551513e-21
6.88417516491566e-21
5.72837143997837e-21
4.87845979605304e-21
1.71682991156645e-21
7.46085365901702e-22
3.86528314068616e-21
2.38665391688297e-21
1.03943121673473e-20
5.6068442022696e-21
1.66313232354531e-21
1.66549274459554e-20
7.11821519272207e-22
2.55761057532665e-22
1.55031816078635e-21
2.87500141452335e-21
1.99983011922198e-20
1.19098533328669e-21
2.23932320591597e-21
1.34785772867533e-21
2.16237479993323e-22
4.2382453124474e-23
9.02792005624784e-21
1.36924438330732e-20
1.39080498189901e-21
5.67036380300881e-22
3.19372980062313e-21
1.44629082551225e-21
5.154338204856e-21
2.89438111686119e-22
1.08186963176748e-21
2.65683025880283e-21
8.16803841781815e-21
3.86985060976526e-21
1.86984464495917e-22
1.81002516032062e-21
1.46617150304485e-21
1.68526506642185e-21
9.6005561894989e-22
4.3316369888864e-22
6.309660889871e-21
8.84483217351277e-21
1.35252128960485e-22
2.84331102679457e-21
1.5172610166405e-22
8.63836215393103e-21
5.82629626172006e-21
5.84661651062541e-21
2.25318654228982e-21
7.66114628721359e-21
4.40372570514782e-21
2.7943569804392e-21
1.81504361741931e-21
5.87276201338655e-21
1.73757228515795e-21
4.66547250622301e-21
2.64481690971798e-22
2.31774150734397e-22
1.95156011687423e-21
4.99550294339049e-21
6.08026344004959e-21
4.36907082018973e-21
3.63004874874264e-21
1.38101067873194e-21
6.2168047567085e-22
2.34898646724785e-20
7.23960356474525e-21
1.37824875149495e-21
2.04845294625989e-21
2.08319718569947e-21
3.98771639165077e-21
2.66804843348758e-21
5.79120161982962e-21
4.61058558517979e-21
9.21398542921817e-21
3.62341775627835e-21
8.75100870689782e-21
1.20847740342601e-21
5.56535018418409e-22
3.83077287075142e-21
3.74978856484592e-21
9.39768581436598e-21
7.96296722141887e-22
3.83704132134835e-21
6.48661281948935e-21
9.99848095307623e-21
4.669747492484e-21
9.3050511705117e-23
1.02717569713563e-20
3.64607601412574e-22
3.49621898119775e-21
4.7151849579936e-21
1.18406311126309e-20
1.18910268413815e-21
7.74160699258827e-21
7.52998035190661e-21
1.80192861916611e-21
5.41110474321124e-21
1.24385566390059e-20
1.88682799960092e-20
5.17934421600184e-22
3.24104703063423e-21
5.07350620569843e-23
1.33420170906506e-22
3.71475408702622e-21
5.62056622885715e-22
1.1292756966357e-20
2.08381309057828e-20
6.26398254337895e-21
1.07677342550284e-21
1.43772839385978e-20
2.36526344235603e-21
2.47743230557238e-25
7.07695978162212e-21
7.99058538228581e-22
1.68854721576135e-21
2.87455170127797e-21
1.90176463384316e-21
4.62032714713769e-21
5.9307797444802e-22
2.67624438865155e-21
1.46419086707875e-21
3.68632185178381e-23
1.49362162124616e-21
7.06170662965774e-21
6.56452072831464e-22
2.42606971600686e-22
2.02002566397986e-21
4.79605365752906e-21
1.38433796894679e-22
1.28843078372675e-22
4.59744326688501e-21
3.54079060102004e-21
1.2767619696957e-21
9.60740046427424e-21
8.84102524385352e-21
4.43919189222002e-22
3.83645563622112e-21
5.10273975411391e-21
1.18371419088137e-21
5.65871125370763e-21
2.53101507358994e-21
2.3706962923348e-21
2.28148655759161e-21
2.03422475732627e-21
9.09275473745897e-21
2.00586466684772e-22
2.61347840435496e-21
1.29485308209787e-21
1.1585581547836e-21
3.75517042670389e-21
5.85180497181317e-23
2.10617317663257e-22
3.55975285965315e-21
1.00123934051876e-20
1.24937475271869e-20
2.8099128296074e-21
2.58091355519084e-22
1.43769746754958e-21
2.33831778440788e-21
4.76378534560602e-21
8.22909730673137e-21
5.93100773662117e-21
1.78807429747055e-21
8.65966976469788e-21
3.41984385330591e-21
9.4357641781867e-22
2.02136059003597e-21
1.60331607304232e-21
4.64175280026267e-21
5.42945452595512e-21
1.26809206557263e-21
2.88240209547324e-21
6.40891175019089e-22
2.08884274415435e-21
4.22170411026992e-21
4.60480797857853e-22
1.84335984827188e-21
1.52492729907934e-21
2.11738044502093e-22
4.24948203957355e-21
1.17631361107904e-21
3.00828794105506e-22
2.0441250145183e-21
4.26524959487816e-21
3.93329747050798e-21
2.30996222397874e-21
1.66494045912503e-21
7.02566506556565e-22
1.41732092751411e-20
8.71864335757277e-21
9.86497242243472e-21
5.89839928110297e-21
2.84404092786813e-21
1.79734884673447e-20
4.62534930044912e-21
1.49006134281754e-20
2.60671986551112e-22
4.99827132284526e-21
1.00561827397997e-21
2.52094459567658e-21
5.70245644367222e-22
4.40442762214834e-21
1.97988032111179e-22
4.42157682272248e-21
8.53686576255333e-23
1.68536578026561e-22
7.21082799683913e-21
7.46081615940985e-21
8.20845086039373e-21
7.97149444463062e-22
2.67802543119108e-21
8.59217774106455e-22
2.59383301164351e-21
5.71333437998462e-21
9.76289129710358e-22
1.89882467882236e-21
7.56168555682937e-23
4.09674808115221e-22
6.81670834197756e-21
1.04535767853367e-20
3.61001784699317e-22
2.86903291885477e-21
2.5296843985182e-21
2.33960873677106e-22
4.94098283727334e-21
8.76537611405736e-21
3.76591976840527e-21
4.59364729232904e-21
9.18194460829764e-21
3.38102013916448e-21
2.73394809546389e-21
7.93460592327885e-22
5.67489721942145e-21
5.20048984486204e-22
9.50081271782253e-21
7.40456094968915e-21
1.84122072989148e-21
7.67224525609748e-21
5.13077490719705e-22
5.44272456564783e-22
1.0739926083514e-20
1.9673953742261e-21
3.27417764802715e-21
1.60741559887812e-21
5.9982626493814e-21
4.31731097059598e-22
9.37073725323102e-21
3.34726387390898e-21
3.62855484222922e-22
6.04815308971603e-23
5.99533326107511e-21
5.00534150829421e-21
1.9464393729635e-21
2.98091851482751e-21
1.34572945366588e-21
3.09253497360271e-21
3.3541349218775e-22
3.61400775909651e-22
3.443284770238e-22
9.66997732915589e-21
5.01032553332602e-22
2.80546508881252e-21
4.08565658718219e-22
2.12783955906527e-21
2.64625232725173e-21
6.65423300507104e-21
1.46134821382623e-20
1.27554152234999e-20
2.54965856135426e-21
2.03857643316497e-22
5.54196141313661e-23
7.09492700420261e-21
2.92020343255944e-21
4.10118463757282e-21
1.65952825130884e-21
1.37578166550842e-21
7.17081596539138e-22
3.07388081464684e-21
3.65124495377055e-21
5.01280223361843e-21
1.32372300053949e-21
1.39344637448076e-20
5.15976088884097e-22
3.21883977593314e-22
2.61334145864504e-21
1.41697936128108e-23
8.01605666512165e-21
1.78590143379669e-21
1.56373401867862e-21
3.11501805445528e-21
7.87444380035207e-21
8.42444594071472e-21
2.52859424269469e-21
2.78761192074507e-22
3.51284323788341e-21
2.35583389526416e-21
1.18042586848722e-21
5.05088711595995e-23
4.76349184842142e-21
4.23830951985896e-21
4.35622009026006e-21
5.81578259558922e-21
2.12677476333114e-21
6.18399188257754e-21
2.38036403221582e-21
3.90646052640332e-21
2.8038306129347e-22
3.411762104395e-21
3.22290301044607e-22
1.55217731985572e-20
2.28089515673429e-22
1.3472675671404e-20
2.56606800854956e-21
8.00522969177397e-21
3.42860822789722e-22
1.83397168131421e-21
1.14722663864113e-21
3.96598947050609e-21
5.62236635086146e-21
1.1300844753278e-21
4.10286810382417e-21
6.91445350906698e-21
3.01112805848682e-21
5.43487565174852e-21
6.12749396284203e-21
1.01769281602196e-21
3.15028297389569e-21
4.98855823875665e-22
1.35416713608378e-20
3.01742822428436e-21
5.06735998279464e-22
5.27358111914126e-21
1.24346049728107e-21
7.91163486106899e-21
1.07187876074066e-21
4.5444061500658e-21
6.76501478935409e-22
5.27021221586752e-21
7.40626365131076e-21
3.88899256507994e-21
1.20041619376785e-21
1.59745242483199e-20
3.74395533843086e-21
2.61914161540003e-22
2.20584908303417e-21
5.13192467168169e-22
1.44340484114383e-20
9.99534914218356e-22
2.29874234190506e-21
1.52371932845291e-21
2.30761938191842e-21
1.15797959737185e-21
3.27230557623691e-21
1.81436542404736e-21
6.90087131644581e-21
6.4903508139956e-21
1.42879180284698e-20
5.43037068656555e-21
4.10838515504871e-21
5.47566691019501e-23
6.64887058608858e-21
1.05848889015135e-20
1.81215338987903e-22
1.73508238828985e-21
3.08018707888866e-22
1.34477894545711e-20
7.03043654199198e-22
6.60042742364365e-21
1.04431007426717e-21
1.28230731609703e-21
3.72854052095836e-21
3.90019369427874e-21
4.35296599883518e-21
1.15807444065667e-21
8.87987954186694e-21
7.00792040577899e-22
6.41846860435237e-22
6.99085949034979e-22
1.92125338892563e-21
4.00738796741209e-21
3.39500149683852e-22
6.21204578965986e-21
1.11972692477744e-21
4.57053029784122e-21
2.53253216746526e-21
1.86794856264401e-20
8.68664604660278e-21
1.78593225506926e-20
1.25295013956503e-20
4.10285980439989e-21
5.25735109840309e-21
5.57955994835435e-21
2.83958278138163e-21
7.22902658517389e-22
5.42808081865566e-21
5.50393744430705e-21
2.22841890193705e-21
4.80609887633546e-21