/*--------------------------------*- C++ -*----------------------------------*\
  =========                 |
  \\      /  F ield         | OpenFOAM: The Open Source CFD Toolbox
   \\    /   O peration     | Website:  https://openfoam.org
    \\  /    A nd           | Version:  7
     \\/     M anipulation  |
\*---------------------------------------------------------------------------*/
FoamFile
{
    version     2.0;
    format      ascii;
    class       Cloud<dsmcParcel>;
    location    "0/lagrangian/dsmc";
    object      positions;
}
// * * * * * * * * * * * * * * * * * * * * * * * * * * * * * * * * * * * * * //

4359
(
(0.137689877301455 0.252282632514834 0.566756521351636 0.0432709688320756) 0 0 1
(0.0323684979230204 0.309304024558512 0.459388460498302 0.198939017020166) 0 0 2
(0.12918980559334 0.635184648912401 0.0497794589027778 0.185846086591482) 0 1 1
(0.148243888746946 0.378828772343694 0.285733616910876 0.187193721998483) 0 1056 1
(0.161193896550685 0.15598248783499 0.130752795375882 0.552070820238442) 0 1056 2
(0.226842670235784 0.64497167430818 0.0972359492443478 0.030949706211688) 0 1056 2
(0.1880764500238 0.348881068173796 0.0597776342183354 0.403264847584068) 0 1086 2
(0.030328882392496 0.506745520513505 0.121807757299392 0.341117839794606) 0 1632 1
(0.672357969917355 0.227859383448959 0.0919489744119341 0.00783367222175142) 0 2178 1
(0.0110281696543097 0.0844629337079825 0.110016154590994 0.794492742046714) 0 2178 2
(0.191185149364174 0.067018517758697 0.696037147194147 0.0457591856829819) 1 2 1
(0.214238967280835 0.272492137737572 0.250169309787452 0.26309958519414) 1 3 1
(0.188906847964972 0.216926750261336 0.0457476456649597 0.548418756108731) 1 3 1
(0.00663409382104863 0.0634771226905294 0.832438080571592 0.0974507029168301) 1 3 2
(0.109851635061204 0.1917211455293 0.0996495247818536 0.598777694627642) 1 1107 1
(0.332264483906329 0.207913982681929 0.387900842353702 0.0719206910580407) 1 1107 2
(0.0385843208059676 0.473148066084832 0.34257842041552 0.14568919269368) 1 0 1
(0.225656436290592 0.165963367559016 0.410157639067621 0.198222557082771) 2 5 1
(0.00633104378357541 0.24260931275785 0.670121768955141 0.0809378745034337) 2 5 2
(0.115766416769474 0.0323494574986397 0.105608094949276 0.746276030782611) 2 1058 1
(0.317265173420309 0.195492966100574 0.0639934935607031 0.423248366918414) 2 1058 2
(0.297956632915884 0.0547620560973901 0.296561698894948 0.350719612091778) 2 1128 2
(0.217367850244045 0.198555795010178 0.3398080538027 0.244268300943076) 2 1674 1
(0.0670556295663105 0.0968551347032189 0.456669532228262 0.379419703502209) 2 2 1
(0.0973373311571778 0.0871276869438588 0.00614454923197644 0.809390432666987) 2 2 2
(0.0498597524128863 0.152515504974871 0.0836469549685721 0.713977787643671) 3 6 1
(0.557345722801986 0.349645361304282 0.0508636375889173 0.0421452783048148) 3 6 2
(0.234007678460331 0.544270491693168 0.0973042519763118 0.124417577870189) 3 7 1
(0.265228445641697 0.100492000114173 0.139501899480817 0.494777654763313) 3 1148 1
(0.549487513490021 0.0926181119866668 0.224180574528872 0.13371379999444) 3 1694 2
(0.16609629429877 0.212743011303245 0.416357105132192 0.204803589265793) 3 4 2
(0.409019493497906 0.324674618430437 0.125777882989495 0.140528005082161) 4 8 1
(0.100536721292885 0.0204166141338638 0.67293392913416 0.206112735439092) 4 9 1
(0.118308003060519 0.213499051053077 0.469759542495013 0.198433403391391) 4 9 2
(0.195307534188032 0.118405979126692 0.685571680311113 0.000714806374163085) 4 1168 1
(0.309796897228807 0.0953661347739391 0.458289625588804 0.136547342408449) 4 1168 2
(0.110723131336272 0.0107676158659167 0.735094317700714 0.143414935097097) 4 1168 2
(0.216937570367008 0.435934266075493 0.258785770740358 0.08834239281714) 4 1714 1
(0.0762530900537969 0.558442453388124 0.0943707041442398 0.270933752413839) 4 1714 1
(0.773119128309189 0.0363203808665281 0.123652092181147 0.0669083986431363) 4 6 1
(0.326337854377928 0.35316443722695 0.28361508483067 0.0368826235644514) 4 6 1
(0.212118221912533 0.572513418737799 0.010865752119571 0.204502607230097) 4 6 2
(0.62869274429977 0.218250102829188 0.108554604463278 0.0445025484077636) 5 10 2
(0.17882885178551 0.214358391240239 0.0865100203081977 0.520302736666053) 5 11 1
(0.194008698686958 0.182131661567837 0.395766159053892 0.228093480691313) 5 1061 1
(0.114233556669205 0.510748657397928 0.0427229944616554 0.332294791471212) 5 1188 2
(0.0724531919695438 0.0334230931475753 0.572339317295701 0.32178439758718) 5 1734 1
(0.451855042949319 0.340230968315154 0.132599519565701 0.0753144691698264) 5 1734 2
(0.28017370356247 0.253660160116851 0.201024735812097 0.265141400508582) 5 8 1
(0.695728163700548 0.0143108204938486 0.0432442394085221 0.246716776397081) 5 8 2
(0.0562710515223388 0.894744417164478 0.0238253497518621 0.0251591815613216) 6 12 2
(0.183617089875043 0.201943897176534 0.317886788863688 0.296552224084734) 6 13 2
(0.281878240872175 0.0556449769064794 0.0739245363511132 0.588552245870232) 6 1062 1
(0.199571900535374 0.135207768529654 0.113839577417821 0.551380753517151) 6 1062 2
(0.0948519771918658 0.39493634365499 0.445125466212632 0.0650862129405126) 6 1062 2
(0.263471979647875 0.381667327601463 0.175060915760695 0.179799776989967) 6 1208 1
(0.701617867685854 0.151119829155504 0.0413537761196495 0.105908527038992) 6 1208 1
(0.483608949463814 0.00617415783926801 0.388709333259612 0.121507559437305) 6 1208 2
(0.185506127774715 0.0921825719997282 0.281104056630282 0.441207243595274) 6 1754 2
(0.108824384398761 0.36337214289233 0.242568767163902 0.285234705545007) 6 10 2
(0.13031082134694 0.140086354687809 0.460690496023743 0.268912327941507) 7 14 2
(0.0440809559077034 0.0569308348931368 0.216906640678642 0.682081568520517) 7 15 1
(0.0178012647666047 0.00321489898488006 0.602185499388724 0.376798336859791) 7 15 2
(0.107901989948004 0.179443875327704 0.564196647144856 0.148457487579435) 7 1063 1
(0.421131001785399 0.510795256122949 0.0575989768840344 0.0104747652076177) 7 1063 1
(0.0835865237750114 0.24438066314906 0.150353168137369 0.52167964493856) 7 1228 1
(0.156293169595301 0.0857163453474635 0.0541515825316308 0.703838902525605) 7 1228 2
(0.229271373711526 0.0658606034703544 0.654903705231847 0.0499643175862723) 7 1774 1
(0.27513128425926 0.182221943512557 0.459691636729988 0.0829551354981958) 7 1774 1
(0.466760167386383 0.301793199498207 0.226617752574384 0.00482888054102597) 7 1774 2
(0.0753660844638976 0.589060397818684 0.154927030671386 0.180646487046033) 7 12 1
(0.384396658744664 0.270973826292902 0.22531263437122 0.119316880591214) 7 12 1
(0.425746493972837 0.0133184744045144 0.120050403755158 0.44088462786749) 7 12 2
(0.0262652435339974 0.181560483761133 0.0175960357300927 0.774578236974777) 8 16 1
(0.527779164258391 0.0817795312032101 0.238813030533493 0.151628274004906) 8 16 2
(0.196462472435087 0.0532747739925979 0.538452066481113 0.211810687091201) 8 17 1
(0.226242535747587 0.395058541558682 0.372650317382068 0.0060486053116633) 8 17 2
(0.414039123803376 0.323300621006638 0.207245014607905 0.0554152405820802) 8 1064 2
(0.737639252096415 0.0814192569814635 0.0667802798561732 0.114161211065949) 8 1794 1
(0.270775488112122 0.595902578439563 0.0445368760265401 0.088785057421775) 8 1794 2
(0.279671364929527 0.150546055287122 0.528821890708059 0.0409606890752916) 8 1794 2
(0.288689963985236 0.343968536239117 0.164863400161266 0.202478099614382) 8 14 1
(0.0786845311522534 0.739521153736857 0.0296061327680955 0.152188182342794) 8 14 2
(0.0666374028660401 0.332260253839191 0.488700084853918 0.11240225844085) 9 18 1
(0.457670354750007 0.0508508374914529 0.243523677345366 0.247955130413174) 9 19 1
(0.302089941687881 0.157794409431518 0.308420385234058 0.231695263646543) 9 1065 2
(0.0910009001381695 0.417505352757872 0.00906413793563912 0.482429609168319) 9 1267 2
(0.0459655788727104 0.292964840307831 0.25957944476977 0.401490136049688) 9 1813 1
(0.350154483225197 0.460648605134337 0.0738779250532384 0.115318986587228) 9 1813 2
(0.0598158934153687 0.106940491124983 0.723206744063647 0.110036871396002) 10 20 1
(0.0124032022431465 0.585900842677807 0.141343226656319 0.260352728422728) 10 21 2
(0.344596436247231 0.348697628360241 0.0938954972662027 0.212810438126325) 10 1066 2
(0.573413698934019 0.18443850846961 0.201057005673647 0.0410907869227248) 10 1286 2
(0.00241249287501155 0.372384743764997 0.401475938037037 0.223726825322955) 10 18 1
(0.176623492501675 0.035939158406109 0.16031356016174 0.627123788930476) 10 18 2
(0.113007741980255 0.108604399021715 0.143908319529146 0.634479539468884) 11 22 1
(0.101441180333494 0.233094258233905 0.630173356272281 0.0352912051603192) 11 22 2
(0.30712182680145 0.378530011978001 0.234998473431915 0.079349687788635) 11 23 2
(0.155924922786654 0.351431835908443 0.00967929698526762 0.482963944319635) 11 1067 1
(0.175241778139025 0.0556363197974859 0.349672365467995 0.419449536595494) 11 1305 2
(0.11353155085817 0.62085675308481 0.167230783961711 0.098380912095309) 11 1851 1
(0.198743382003158 0.502213584259153 0.269548221491278 0.029494812246411) 11 1851 2
(0.256138758733871 0.0290971733629701 0.191113169305025 0.523650898598134) 11 20 1
(0.214708716608584 0.242848503403366 0.408858028706163 0.133584751281887) 11 20 1
(0.245850139297544 0.473797937389464 0.195593489799648 0.0847584335133446) 11 20 2
(0.354572454001752 0.279638821724804 0.122914065606892 0.242874658666553) 12 24 1
(0.440559788141399 0.00802281312644467 0.47875501960516 0.0726623791269961) 12 25 2
(0.0103026283904921 0.0917930365540081 0.195676542818544 0.702227792236956) 12 1068 2
(0.570415033493191 0.220186716411263 0.197766381315884 0.0116318687796615) 12 1324 1
(0.0861057071015238 0.0604581618681512 0.688012006226931 0.165424124803394) 12 1870 1
(0.0565390484407543 0.156778537202628 0.554720525164159 0.231961889192458) 12 1870 2
(0.467537043616173 0.131632096599788 0.333027590066196 0.0678032697178425) 12 22 1
(0.0808685878291698 0.481208853423598 0.223412232939153 0.214510325808079) 13 26 1
(0.0448882472701398 0.234453179873525 0.363208631519228 0.357449941337107) 13 26 2
(0.0126136732287683 0.630162372719498 0.184313992038374 0.172909962013361) 13 27 1
(0.198985876049851 0.435807682108129 0.359637702815232 0.00556873902678742) 13 27 2
(0.0357689368538557 0.430399689357727 0.124250936321917 0.4095804374665) 13 1343 1
(0.024776179343462 0.303193498868495 0.00514280423521793 0.666887517552825) 13 1343 1
(0.180562011431903 0.307304667774589 0.152313186787069 0.359820134006439) 13 1343 2
(0.357866154517979 0.335037577431647 0.0103709730319702 0.296725295018404) 13 1889 1
(0.178786783944815 0.479385489132255 0.0357306036166854 0.306097123306244) 13 1889 2
(0.0330412876792301 0.301651948597279 0.435552213340995 0.229754550382495) 13 24 1
(0.287421483546495 0.0521932933479556 0.647367619909346 0.0130176031962042) 14 28 1
(0.0464115156792088 0.540890891104937 0.29744883766398 0.115248755551873) 14 29 1
(0.0997081939131031 0.1432905360125 0.0656739366240795 0.691327333450317) 14 29 2
(0.0753746409900499 0.173301503527911 0.117787317838517 0.633536537643521) 14 1070 1
(0.449324929155406 0.173379106447102 0.362906278111045 0.0143896862864468) 14 1070 2
(0.0164287313818934 0.824921191669999 0.0505071929655988 0.108142883982508) 14 1908 1
(0.00349440379068278 0.16403317404911 0.069884800817816 0.762587621342392) 14 1908 1
(0.886880629230291 0.0751481121405973 0.0106405112892423 0.0273307473398697) 14 1908 2
(0.506760078482327 0.129574356134982 0.0985391046851862 0.265126460697504) 14 26 2
(0.159400588832796 0.47448918968439 0.00780348107218863 0.358306740410626) 15 30 1
(0.0566493249498297 0.562813848722727 0.116510001942515 0.264026824384928) 15 30 1
(0.543140290305019 0.0589129221625626 0.15969949029386 0.238247297238559) 15 31 1
(0.0718716839328419 0.208449244964867 0.515920840203761 0.20375823089853) 15 1071 2
(0.091218720190227 0.601577747147531 0.279838987160471 0.0273645455017717) 15 1380 1
(0.343872340396046 0.298710642382503 0.103377342224121 0.25403967499733) 15 1926 1
(0.364435629919173 0.232871812302619 0.309768188279121 0.0929243694990865) 15 28 1
(0.121699724812059 0.0235477639362229 0.160523022990673 0.694229488261045) 16 32 1
(0.111515886615963 0.355571345891803 0.319404092151668 0.213508675340566) 16 33 1
(0.243233449291441 0.38777162693441 0.211248985957351 0.157745937816797) 16 1072 1
(0.0816352842375636 0.131836064159871 0.303888760041445 0.48263989156112) 16 1944 1
(0.359049338381738 0.111468255054204 0.179622181225567 0.34986022533849) 16 1944 2
(0.381086702458559 0.2282336037606 0.0683793257921942 0.322300367988647) 16 30 1
(0.426400291267782 0.367970305494963 0.0561607764102532 0.149468626827002) 17 1416 2
(0.142685464583337 0.400850602425636 0.225127750076352 0.231336182914675) 17 1962 1
(0.18958361633122 0.473163279239087 0.0962009862996614 0.241052118130032) 17 1962 2
(0.347216788679361 0.143467942252755 0.165703734848649 0.343611534219235) 18 37 1
(0.289056120906027 0.252448711544272 0.00437363702803736 0.454121530521663) 18 37 2
(0.0805513947270788 0.0633060224354265 0.147779582999648 0.708362999837847) 18 1074 1
(0.476299344561996 0.110601658001541 0.31118887197226 0.101910125464203) 18 1074 2
(0.313200226984918 0.387987019494175 0.277294791769239 0.0215179617516678) 18 1434 1
(0.0701566003262994 0.420929806772623 0.07392929447815 0.434984298422927) 18 1434 2
(0.46290418878198 0.184604548383503 0.0876337341032925 0.264857528731225) 18 34 2
(0.342540947720407 0.0494406768120838 0.197204114869237 0.410814260598273) 19 38 1
(0.0183169837109712 0.0522592058405294 0.471033332403749 0.45839047804475) 19 38 1
(0.497224083170299 0.372671228367833 0.107821937184779 0.0222827512770887) 19 38 2
(0.167823029216381 0.471084349323059 0.0186408744193602 0.342451747041199) 19 39 2
(0.173410488292571 0.110330095514657 0.0336080114357207 0.682651404757051) 19 1075 2
(0.196705249603838 0.227538334205747 0.0488930875435459 0.526863328646869) 19 1452 1
(0.165887400973588 0.367973673157395 0.358178860042244 0.107960065826773) 19 1452 2
(0.199142031837255 0.0183664220385249 0.543249595910312 0.239241950213909) 19 1998 1
(0.265634076669812 0.235438627190886 0.497232158668339 0.00169513747096307) 19 1998 2
(0.266379104461521 0.110555472318083 0.305288758594547 0.317776664625849) 19 1998 2
(0.559848085045815 0.0762415672652432 0.358470001257956 0.00544034643098614) 19 36 1
(0.113954691216358 0.165930141229178 0.445001490879801 0.275113676674663) 20 40 2
(0.189697394147513 0.179791485425086 0.11671030567959 0.513800814747811) 20 40 2
(0.465061356779187 0.0174301504157487 0.501132747624069 0.0163757451809946) 20 1076 2
(0.366013153921813 0.232519062701613 0.274772246833888 0.126695536542686) 20 1469 1
(0.313606474082909 0.26701241079718 0.216462740674619 0.202918374445291) 20 38 1
(0.264228766318408 0.214162960182877 0.479171972256157 0.0424363012425584) 21 42 2
(0.0510315774008625 0.477568450383843 0.2172513990663 0.254148573148995) 21 43 2
(0.00105104781687293 0.754470325540749 0.206442589405926 0.038036037236452) 21 1077 1
(0.479204206727445 0.0371198682114473 0.38985634688288 0.0938195781782278) 21 1486 2
(0.476510578300804 0.0334420520812261 0.0743307583034014 0.415716611314569) 21 2032 2
(0.346097758505497 0.164595031645147 0.0320144309662299 0.457292778883126) 21 40 2
(0.561712744645774 0.18018204998225 0.0627841660752884 0.195321039296688) 22 44 2
(0.325197506695988 0.00837040366604894 0.17866364866495 0.487768440973012) 22 1078 1
(0.154247569385915 0.0749211073853079 0.742502226959915 0.0283290962688617) 22 1078 2
(0.37273235525936 0.0577425928786394 0.554835748393084 0.014689303468917) 22 1078 2
(0.739351049996912 0.0655178818851737 0.0750125902704898 0.120118477847424) 22 1503 2
(0.104394052177668 0.504013916011901 0.185709129553286 0.205882902257145) 22 2049 1
(0.823885657824576 0.0299716521985792 0.0852671763859749 0.06087551359087) 22 2049 1
(0.206324387341739 0.0159486844204361 0.503141199704259 0.274585728533566) 22 42 1
(0.459335420280699 0.248298838268963 0.0907081463374223 0.201657595112915) 22 42 2
(0.246801181230704 0.50538031617179 0.190961520653218 0.0568569819442877) 23 46 1
(0.326872491277752 0.18659535609186 0.165241065900771 0.321291086729617) 23 1079 1
(0.3039776342921 0.168433691840617 0.0597466374747446 0.467842036392538) 23 1079 2
(0.125759135000408 0.732603351585568 0.105502344202252 0.0361351692117729) 23 1520 1
(0.0601651133038105 0.0093850102275615 0.280349451117219 0.650100425351409) 23 2066 1
(0.396049181930721 0.184573123231531 0.100293160416185 0.319084534421564) 23 2066 2
(0.374157008714975 0.0404142490588124 0.0559305497445179 0.529498192481695) 23 44 2
(0.0294089317321729 0.708574459422383 0.125103478319942 0.136913130525502) 24 48 1
(0.347327035851774 0.0549338045530033 0.205044128000739 0.392695031594484) 24 48 2
(0.585144027601927 0.30093592684716 0.000217719003556116 0.113702326547357) 24 49 1
(0.313456624746324 0.271427316591142 0.390499814413489 0.0246162442490452) 24 1080 1
(0.147067190147939 0.264876805245875 0.0317910769954296 0.556264927610756) 24 1080 2
(0.623803686350584 0.000357409939167526 0.105570826213815 0.270268077496433) 24 1537 1
(0.127272739075124 0.410079138819127 0.20048970589414 0.262158416211609) 24 2083 2
(0.152456758543841 0.560613109264527 0.042117184028029 0.244812948163603) 24 46 2
(0.221235350705683 0.397713251877576 0.116587163414807 0.264464234001934) 25 50 2
(0.397912418004127 0.0943489070050409 0.0548762409016494 0.452862434089182) 25 51 1
(0.21108565991744 0.00557323778048039 0.598911332897845 0.184429769404234) 25 1081 1
(0.0811271159909668 0.562657200731337 0.297061924822628 0.0591537584550683) 25 1081 2
(0.0831720149144529 0.436401403043413 0.408978977240621 0.0714476048015132) 25 1553 2
(0.103001707233489 0.584655933082104 0.0698169004172075 0.2425254592672) 25 2099 2
(0.167452143039554 0.557926705572754 0.0114942681975667 0.263126883190126) 25 48 1
(0.0114032239653103 0.375228714197876 0.164095936808738 0.449272125028076) 25 48 1
(0.663465126883234 0.0765190445818032 0.0216381838545219 0.238377644680441) 26 52 2
(0.193810847122224 0.0843595177866509 0.27578760124743 0.446042033843695) 26 53 1
(0.0300029637291991 0.256490348372611 0.645532389171423 0.0679742987267669) 26 53 2
(0.17337058624253 0.271095637232068 0.534273237921293 0.0212605386041091) 26 1082 1
(0.371112219057972 0.101755833253267 0.371590021532036 0.155541926156725) 26 1082 2
(0.273154804483056 0.0959113445132994 0.0824124827049599 0.548521368298684) 26 1569 1
(0.196125170215965 0.515960910823197 0.0331164379604167 0.254797481000422) 26 1569 2
(0.000132877379655838 0.0670825913548466 0.435704759787768 0.497079771477729) 27 1585 2
(0.115165640134364 0.671292803715913 0.12263574497774 0.0909058111719823) 27 2131 2
(0.592543251346797 0.181364707648754 0.0450361953116961 0.181055845692753) 27 52 2
(0.0810871557332624 0.0459735267795596 0.442226716782896 0.430712600704282) 28 56 2
(0.197839769534765 0.261735448148102 0.0499051623046421 0.490519620012491) 28 56 2
(0.189027606509622 0.170268127694725 0.391957319807264 0.248746945988389) 28 1084 1
(0.141875363420697 0.00473632430657662 0.229400690179313 0.623987622093414) 28 1084 2
(0.0901643210090699 0.687622280791402 0.0408709435723719 0.181342454627156) 28 1601 1
(0.518239674624055 0.0897900592535669 0.38445568829776 0.00751457782461808) 28 2147 1
(0.0911160339601355 0.596006193198263 0.0481258849613385 0.264751887880263) 28 54 2
(0.536297380458566 0.044127732515334 0.195189625956118 0.224385261069982) 28 54 2
(0.00436194799840672 0.377511922270058 0.248537492472677 0.369588637258858) 29 58 2
(0.172736938577143 0.0653513679280863 0.52752195298672 0.234389740508051) 29 1041 1
(0.189233420416711 0.283436635974796 0.345030643511562 0.182299300096931) 29 1041 2
(0.420482852496207 0.0540880966000254 0.126466185320169 0.398962865583599) 29 1085 1
(0.667765721678737 0.0397985177114594 0.163717212155461 0.128718548454343) 30 59 1
(0.195293319411575 0.428373877890409 0.205150867346674 0.171181935351342) 30 59 1
(0.292216132394968 0.296844877302647 0.0102765900082896 0.400662400294095) 30 60 1
(0.508145311381668 0.0978342434391385 0.0728845642879593 0.321135880891234) 30 1633 1
(0.128102134913206 0.118916517589241 0.4560916563496 0.296889691147954) 30 1633 1
(0.0619618403725325 0.514827774371952 0.111549799330533 0.311660585924983) 30 1633 2
(0.263831286691129 0.0567953730933366 0.0901875244453552 0.589185815770179) 30 1 1
(0.282890594564379 0.232440607622266 0.241595138795673 0.243073659017682) 30 1 2
(0.520377684384587 0.0348600726574637 0.308624470140786 0.136137772817163) 31 61 1
(0.0275583975017062 0.511351487133653 0.308011511340737 0.153078604023904) 31 61 1
(0.201253776904197 0.55813301121816 0.0733923874795432 0.1672208243981) 31 61 2
(0.580015969462694 0.0772489458322517 0.179675348103046 0.163059736602008) 31 61 2
(0.42951794154942 0.0275732469744997 0.0176040506921708 0.525304760783909) 31 62 2
(0.291057609021664 0.00779910478740951 0.177768833935261 0.523374452255665) 31 1108 1
(0.0441148472018542 0.188544613309203 0.580462872050701 0.186877667438241) 31 1108 2
(0.398328374139965 0.0917944549582903 0.0439465194940556 0.465930651407689) 31 1654 1
(0.220120140351355 0.145098408218474 0.255424834322185 0.379356617107986) 31 1654 2
(0.098070535808803 0.0296074114739899 0.323767780326306 0.548554272390901) 31 3 2
(0.00407904712483087 0.420211126096548 0.195971156936138 0.379738669842483) 31 59 2
(0.265227946452798 0.0648570209741585 0.668429096695036 0.00148593587800795) 31 59 2
(0.384546430781483 0.306655738502742 0.238566637970506 0.0702311927452689) 32 63 1
(0.265773059800269 0.166681348811834 0.410724470391869 0.156821120996028) 32 63 2
(0.0832158895209437 0.211093810852617 0.0508248088881383 0.654865490738301) 32 64 1
(0.358195966575294 0.156739549245687 0.0455611092038458 0.439503374975174) 32 64 2
(0.237094142474234 0.0935024451464407 0.324190456420184 0.345212955959141) 32 1675 1
(0.166367437690497 0.270498908590525 0.553073748014867 0.0100599057041111) 32 1675 2
(0.17673202091828 0.0431885891593991 0.554597830399871 0.22548155952245) 32 1675 2
(0.439151228405536 0.319249791093169 0.0797547334805144 0.161844247020781) 32 5 2
(0.274517977144568 0.208532950840891 0.254030173644424 0.262918898370117) 32 61 1
(0.235593922436236 0.0950451339595026 0.385103114414959 0.284257829189302) 32 61 2
(0.259218707215043 0.0107155176810902 0.272676190827043 0.457389584276824) 33 65 1
(0.0631054630503042 0.538222793024034 0.116044461261482 0.28262728266418) 33 66 1
(0.509761559776962 0.104863315355032 0.262034545652568 0.123340579215437) 33 1149 1
(0.194546996615827 0.453980381600558 0.317555671092122 0.0339169506914928) 33 1149 2
(0.0257699606008828 0.421585417352616 0.42353657912463 0.129108042921871) 33 1149 2
(0.193238601088524 0.217663957271726 0.379964147228746 0.209133294411004) 33 1695 1
(0.000977080315351375 0.448031925130636 0.349336650222541 0.201654344331472) 33 1695 2
(0.0251609762199213 0.578780061099679 0.262632558587938 0.133426404092461) 33 7 2
(0.559785506688054 0.0473376759327968 0.350501221604648 0.042375595774502) 33 63 1
(0.231125290971248 0.404318288899959 0.300999876111745 0.0635565440170477) 33 63 2
(0.239034049678592 0.0869710594415674 0.641718931961805 0.0322759589180355) 34 67 2
(0.243559449911115 0.214320989325644 0.272500208113343 0.269619352649898) 34 67 2
(0.00915533350780617 0.756405319552868 0.164535041432828 0.0699043055064981) 34 1169 1
(0.182511271908879 0.0565245244652018 0.398830734193324 0.362133469432595) 34 1169 2
(0.00580399297177792 0.0275129466317601 0.951125991530715 0.0155570688657475) 34 1715 1
(0.436061613727361 0.0444931583479047 0.0589108294807383 0.460534398443996) 34 1715 2
(0.0417769420892005 0.0283696199767285 0.399098098278046 0.530755339656025) 35 69 1
(0.277547081466766 0.271854389924555 0.0999597324989734 0.350638796109705) 35 69 2
(0.321065270341933 0.575942314695567 0.0914093265309909 0.0115830884315094) 35 70 1
(0.404561934992671 0.138288732618093 0.438795262016356 0.01835407037288) 35 1735 1
(0.573460783809422 0.187272957526148 0.000976225361229968 0.2382900333032) 35 11 1
(0.0142775848507873 0.27415315201506 0.344364512711764 0.367204750422389) 35 67 1
(0.0265131462365398 0.10708198742941 0.771942660678179 0.0944622056558713) 35 67 2
(0.0905717117711887 0.864208268932999 0.00186086632311533 0.0433591529726973) 36 72 1
(0.112403647508472 0.126461829058825 0.0115354526788008 0.749599070753902) 36 1209 1
(0.181479078251869 0.0756151219829899 0.445412028115242 0.297493771649899) 36 1209 2
(0.0935424985364077 0.342464101500809 0.237720747943968 0.326272652018815) 36 1755 2
(0.2132388362661 0.130650944076479 0.273728084284813 0.382382135372609) 36 13 1
(0.283676772378384 0.389884071890265 0.257337849121542 0.0691013066098092) 36 13 1
(0.242040241602809 0.600784013513477 0.126016222871838 0.0311595220118758) 36 13 2
(0.0645212964154777 0.406935608945787 0.478113194927573 0.0504298997111617) 36 69 1
(0.181408089585605 0.348345198202877 0.0607093018479637 0.409537410363555) 36 69 2
(0.44745772890746 0.0904352911748031 0.323995934333651 0.138111045584085) 37 73 1
(0.246503029949963 0.486632036510855 0.0851960252039132 0.181668908335268) 37 1775 1
(0.616495890077204 0.0630017970688649 0.285507499240341 0.0349948136135904) 37 1775 2
(0.0681460970081395 0.571163290645927 0.326188310980795 0.0345023013651387) 37 15 1
(0.039995222818101 0.319044977892192 0.0572792435996261 0.583680555690081) 37 71 1
(0.174814156722279 0.540352893993258 0.261049780528992 0.0237831687554717) 38 75 2
(0.214183885138484 0.576988029759376 0.0723837357945741 0.136444349307566) 38 76 1
(0.0888344235718237 0.422902547754347 0.245577162131668 0.242685866542162) 38 76 2
(0.327551483176648 0.0893739801831549 0.056533442344512 0.526541094295685) 38 1249 1
(0.158446233253926 0.311881864443421 0.300569005776198 0.229102896526456) 38 1249 1
(0.115154420025647 0.212542779278012 0.397682521957902 0.274620278738439) 38 1795 1
(0.774491090793161 0.159633344039322 0.020592102315279 0.0452834628522382) 38 17 1
(0.0342325014062158 0.448352204635742 0.414610818028453 0.102804475929589) 38 73 1
(0.0166595233604292 0.101375803351403 0.755949714686723 0.126014958601445) 39 78 1
(0.469565642066302 0.107390898745504 0.401568193919956 0.021475265268238) 39 78 2
(0.296256009489298 0.0197391752153652 0.0697933323681364 0.614211482927201) 39 1268 2
(0.584309069439768 0.0978407557122411 0.316380318254235 0.00146985659375517) 39 19 1
(0.256270396057516 0.402164144441486 0.0746070635505022 0.266958395950496) 39 75 1
(0.397284322418278 0.198211366776374 0.0917337993159863 0.312770511489361) 39 75 1
(0.59556455397978 0.0660343631170712 0.0373307182453573 0.301070364657792) 39 75 2
(0.197534322272983 0.260720930527897 0.258734807837753 0.283009939361367) 39 75 2
(0.384158024098729 0.545720540452745 0.0680921077728282 0.00202932767569771) 40 79 1
(0.220992623362693 0.0947333709336795 0.568528964649887 0.115745041053741) 40 79 1
(0.626217979006465 0.0988937360234581 0.259090745355935 0.0157975396141422) 40 79 2
(0.191394623834639 0.557154774665833 0.101476654876023 0.149973946623505) 40 80 1
(0.00406425446271908 0.268045720644298 0.719068478327245 0.00882154656573836) 40 1287 2
(0.0823075310327113 0.259927354287354 0.27176325907931 0.386001855600625) 40 1833 1
(0.18687382992357 0.35239256825298 0.307713964488356 0.153019637335094) 40 1833 2
(0.557655208744105 0.182883179280909 0.205690214876085 0.0537713970989014) 40 77 2
(0.0859720613807494 0.161771373357621 0.562170185614378 0.190086379647252) 41 81 1
(0.580244174692783 0.0671430868096634 0.0238810041919342 0.328731734305619) 41 81 2
(0.0685235843993687 0.442349719349297 0.349655812606218 0.139470883645117) 41 82 1
(0.660112181678415 0.181010320316996 0.000835182610899006 0.15804231539369) 41 82 2
(0.330345795024186 0.169730508234351 0.231368500273677 0.268555196467786) 41 1852 1
(0.115149734541774 0.607927325181663 0.225377961993218 0.0515449782833445) 41 1852 2
(0.0103046828880916 0.624352479353548 0.0842481660656614 0.281094671692699) 41 23 2
(0.580682452302419 0.25564630283043 0.0637174937874114 0.0999537510797396) 41 79 1
(0.103063470218333 0.385644975583999 0.46806691074744 0.0432246434502285) 41 79 2
(0.00580177782103408 0.558985534124076 0.360247702337802 0.074964985717088) 42 83 2
(0.85658640228212 0.0490200365893534 0.0871507995761912 0.00724276155233493) 42 84 1
(0.463968701660634 0.00224609207361897 0.147404051851481 0.386381154414266) 42 84 2
(0.338443906977773 0.0584119460545493 0.0386628168635046 0.564481330104173) 42 1325 1
(0.594432380516082 0.0675978073850269 0.134422353468835 0.203547458630056) 42 1325 2
(0.121763562317938 0.484154289588331 0.382120961323379 0.0119611867703526) 42 1325 2
(0.0758798937313258 0.361529361456632 0.0925375372171374 0.470053207594905) 42 1871 2
(0.431238982826469 0.319227411877365 0.193276621401313 0.0562569838948525) 42 25 1
(0.369129079394044 0.326874082908034 0.0867678131908172 0.217229024507105) 42 25 2
(0.327339671552187 0.536892449017611 0.0633481745608133 0.0724197048693887) 43 85 2
(0.238574861083179 0.00797454034909631 0.151696623302998 0.601753975264727) 43 86 1
(0.254749553278087 0.303880278952424 0.110105251893402 0.331264915876087) 43 86 2
(0.458603725768626 0.0328417657874519 0.196927948854867 0.311626559589055) 43 1344 1
(0.557639205362648 0.133529740851374 0.166896264068783 0.141934789717195) 43 1344 2
(0.0117415278218687 0.0954561308026331 0.0160433049313705 0.876759036444128) 43 1890 1
(0.135460468009114 0.677009010687471 0.0632647192105667 0.124265802092848) 43 1890 2
(0.0625757682137209 0.125715152360498 0.495893592946228 0.315815486479553) 43 27 1
(0.635193368885663 0.193012719508262 0.0447878916747856 0.127006019931289) 43 83 2
(0.589559674263003 0.1148848477751 0.165621850639582 0.129933627322315) 44 87 1
(0.132697143591939 0.185743724461646 0.53794815344736 0.143610978499056) 44 87 2
(0.0476904790848477 0.499041745904834 0.321939464192839 0.131328310817479) 44 88 1