/*--------------------------------*- C++ -*----------------------------------*\
  =========                 |
  \\      /  F ield         | OpenFOAM: The Open Source CFD Toolbox
   \\    /   O peration     | Website:  https://openfoam.org
    \\  /    A nd           | Version:  7
     \\/     M anipulation  |
\*---------------------------------------------------------------------------*/
FoamFile
{
    version     2.0;
    format      ascii;
    class       vectorField;
    location    "0/lagrangian/dsmc";
    object      U;
}
// * * * * * * * * * * * * * * * * * * * * * * * * * * * * * * * * * * * * * //


4359
(
(1300.4448954726 141.518198526006 103.219188555539)
(2346.57550117477 304.493708524183 -304.485519882458)
(1520.50074604219 -449.865724281701 560.272527114091)
(1794.5689745095 48.7192061870631 125.664466363895)
(1646.38021131746 -102.216680918346 -147.925555041825)
(1407.78004158091 -175.367431252544 -440.464819165153)
(1976.72788575882 -216.510606738258 32.8722029112211)
(1374.1813185348 -14.9294644044943 -373.161808507105)
(2162.48975106729 -574.17643986531 24.415263932553)
(1857.38795554319 457.600453481192 181.084245635169)
(1928.83636200204 -34.592863169076 -109.117272694837)
(1685.35867235587 408.391484332914 -270.243587910942)
(1789.8835605641 -55.290627376127 253.785964604282)
(1670.83592799764 328.803515013258 -290.845908883326)
(1917.49944223271 -363.440451207706 21.2180985780803)
(1698.71819957189 -278.34969972168 469.184808484565)
(1489.05223565895 30.5815708974547 -58.2233557808761)
(1409.55304065758 90.0679462945039 -113.625592160192)
(1865.85874522013 -493.200605621326 66.378882291075)
(1684.95180977341 -161.398249486643 -95.2607791644794)
(1698.23661289563 61.1534326233653 -356.366822657437)
(1585.14200781963 -250.608573597299 64.9855786485014)
(1661.9887900395 -548.882067007856 318.442357715411)
(1784.92818405056 -298.647047606451 -308.308146468229)
(1298.7906374735 -442.490144251435 -552.421686230193)
(2294.02761736018 -148.73245748554 -389.00374458488)
(1626.82950776055 56.2125204209842 420.635747014093)
(1919.20553283381 291.690838492355 -17.5534315596305)
(1303.62488805829 -203.665892967456 403.459778659311)
(1429.10446864246 208.065163386247 71.7220666293742)
(1928.58922587631 161.899913967893 133.194568569615)
(1499.36458701064 -345.736001493236 -76.1057183445976)
(1449.05567744944 -73.1142908694669 224.203539713931)
(1981.61995885174 204.023984585342 665.197968587874)
(1701.07995832378 194.581226182475 327.302982901797)
(1694.0331404569 -248.195499871941 205.986754132193)
(1881.77493490024 -408.307889920331 89.5148872036523)
(2111.01345932844 262.220460513125 546.971956540223)
(1623.67000884087 -412.829977007816 -153.477666880411)
(2168.1780889119 -161.57513419512 53.9237121982217)
(2322.56059745485 227.739803146955 -34.3743149882686)
(1964.769684981 290.409928897785 -257.513698354832)
(1199.1638425331 231.180624926678 308.17078310464)
(1867.27882880979 169.618016876011 -306.272870893888)
(2090.07256921463 264.600141146515 37.2206895235379)
(1688.14551697524 -519.334600298577 174.948755244536)
(1808.18956719905 -256.691293444082 647.920781226278)
(1914.40605210598 -333.762074013258 -20.4828513027859)
(1530.17102228412 -813.457992996305 -378.744546220808)
(1404.23401411344 160.437414857684 364.338066855181)
(2390.31408860146 127.884284587233 300.159141648546)
(1982.60487809577 345.547924057522 210.968641941447)
(2207.0572547698 105.265368955082 391.80005634676)
(1997.89214715451 282.287497489002 -102.155788326132)
(1592.92915155859 -112.381863226612 108.441465225654)
(2163.06271307954 227.026327470398 26.2303588558542)
(1824.16575302361 -296.046841596893 -261.274115185887)
(1963.96512842328 205.367545550262 170.439563277484)
(1608.26576518192 -147.152569970409 -190.360686345463)
(1625.61114773663 -287.21100046444 -209.64124040703)
(1993.77323085769 -704.821368278804 -278.584795479274)
(1662.86074459602 -42.5464298333292 -226.316233031241)
(1758.22816091362 -355.45488053946 -79.2514086049953)
(1906.38054403245 125.343139222856 -327.822423783168)
(2303.5288556177 -303.877974086056 -36.8897607862356)
(1627.44631987697 -588.522403403047 -42.3629441464192)
(2298.20106598823 -152.287187435761 -209.449012321419)
(1497.8877708889 -241.683680125252 100.874322783689)
(2103.7819603058 -135.482879014807 -257.75680442235)
(1495.19945786482 -3.50429299976623 48.8808584951246)
(1800.56452289602 -111.864800226337 343.972780912856)
(1893.63076784544 -53.4953143039552 -522.847086043779)
(1651.48318731373 267.098770475027 -570.983485993716)
(1596.50008022583 -204.501986401445 -227.945215352882)
(1892.64960734474 -348.308618236072 424.99968284529)
(1585.43003275432 -251.757518306509 295.333260459491)
(1627.66130796731 1.80883484425353 116.120416516728)
(1688.06139805033 -404.870155876216 134.263094874314)
(1753.66596944748 -64.8780465454799 254.525067059046)
(1771.16839186649 -310.630823855749 500.167589018658)
(1702.94409529721 338.815422159636 -60.3031587734503)
(2268.93196223519 392.068713277913 314.26588630967)
(1942.03054609591 554.646701006895 -139.796968920649)
(1933.597984309 152.071187148102 40.7283580193927)
(2318.77648111342 99.871477154187 396.321910739271)
(1697.80426614799 -207.728688569823 -700.026220811827)
(1422.06419853846 -115.338963411579 -35.7780124343431)
(1333.49081288177 364.660861706603 -190.482365217333)
(1359.06900608862 -80.3704173606788 287.805448015802)
(1921.91822473848 302.704475639935 312.04810718148)
(1378.16999133102 261.118735143255 -42.5520380362606)
(1896.57043775189 -125.849313564198 110.451713091715)
(1614.07208021923 429.195098739024 238.043221132195)
(1851.16324321831 459.430888195564 454.73257132743)
(1413.7214309984 241.794311739286 500.988149214489)
(1824.5248360124 -196.103751873003 221.37737001733)
(1550.20451633388 -135.353481654603 -384.802108540673)
(1427.72915832214 124.854702325599 -248.071483529342)
(1883.57048062746 -127.282952583742 -121.408620764942)
(1571.35243550455 -74.9328382204966 236.034191550942)
(1836.22480931914 -103.057242430916 107.825524672557)
(1347.51456500345 195.587257828853 353.405366726882)
(1301.83123574479 -62.4469083406812 268.232418875444)
(1296.40407737773 52.209885117897 -67.7093243149659)
(1146.84941249215 -586.348449677754 253.919777810859)
(1659.54968948501 291.002706991958 141.806507519337)
(1741.87458413728 20.2800542474797 -527.954996176145)
(1471.945273479 -302.032456505653 221.405194505163)
(1619.61287370654 -38.9630781573004 -157.069481260351)
(1779.86074309218 128.751114821801 -78.7036663590162)
(1483.8400279186 -253.01466878399 -31.6710038802416)
(1527.60633536483 223.128154912662 600.022676212479)
(1658.01414909975 76.3825683155619 -107.605911403963)
(1553.24162356648 44.2545363399407 -176.154537309379)
(1523.43759697471 -377.546453800328 -328.680536571403)
(2116.68452834404 -196.604082332227 668.010531129583)
(1465.34841251564 50.6159113983289 423.977086417864)
(1515.35782266438 235.127827104326 225.146161138147)
(1607.41426107593 24.7268767864755 414.37689512022)
(1707.44109452651 59.6316780725162 -209.358333264616)
(1455.4052781779 577.381650852897 -211.719428686634)
(2036.23870153398 -339.750598865226 308.367929476311)
(1434.00931246807 53.6129236488133 74.5474403000737)
(1788.66324771472 -549.962877425092 -296.233420306067)
(1818.26813674587 157.777249369375 -445.488359523776)
(2161.91717255707 -428.44213867092 -369.414117720264)
(2220.74140796215 301.791188244039 124.547692048834)
(1795.77673462559 136.398353090568 351.37614171268)
(1594.98179048508 222.19478707314 242.891628506807)
(1415.41805056453 486.801217660278 66.0692668138447)
(1622.34604285421 -230.519052369337 -519.93576565663)
(1884.40223037197 203.781069824735 -103.495436379426)
(1628.84707238653 -200.567800229571 3.80492942356984)
(1816.89052975691 -127.861078475378 220.569149162969)
(1585.37630661149 38.3924012039018 -5.21696276735362)
(1666.91826027698 51.6061388372227 -267.007170647321)
(1721.24024089476 328.22964300306 -313.429702518042)
(1411.45099564288 -400.206065785096 -415.198924515215)
(1772.39908697489 164.583780820233 22.705780199986)
(1612.46205072304 -0.0219934669660793 637.199526854385)
(1596.33678057225 158.079456042043 -481.474951325474)
(1833.28978483801 61.1959908038519 -218.156027705935)
(1524.31473491319 230.227749105071 428.376640875959)
(1945.48275549438 17.8332778141507 -142.238647952272)
(2113.08612804816 -533.270322727898 -39.1502155407823)
(1786.34988540872 -172.076668638612 554.377776452401)
(1326.49464924708 -106.359286514042 600.867077305646)
(1425.28260883783 148.549666762839 -136.799265293149)
(1283.04761029591 -142.933998520295 -677.521222607107)
(1438.11508170956 -85.3530653417182 26.0505698741761)
(1655.32382085969 -63.9285342077353 -251.724876061368)
(1399.67266171152 -99.3341491329605 -363.70056198019)
(1469.22275939084 487.742906208836 295.003517893686)
(1803.83679159957 175.279589087253 -257.501605131865)
(2055.59452487985 -145.597046927797 -213.949550201873)
(1428.84340273195 -201.957663530829 263.917666311548)
(2147.5652903891 -192.509439731517 -120.920939956909)
(1766.95924291982 -366.658339691761 269.073980508485)
(1544.32172911675 -372.670863853236 521.588631383556)
(1578.4109116555 -171.533814190495 -220.226117873572)
(1714.14816402281 -127.305108405025 25.757121611573)
(1980.04668089774 -270.316329511909 -55.8736897902488)
(1358.92604696938 50.8715952183654 250.64973991978)
(1551.21818010526 -365.73972667923 -159.132415864123)
(1818.98155580864 -344.806953034554 136.100673584657)
(1409.46943950803 -45.0748503290137 48.9326665228965)
(1502.28968608831 119.72117790583 27.5155635435352)
(2071.9999992728 514.780974528258 -275.010801544562)
(1495.35157089771 119.690186793661 189.219087108537)
(2106.39412010898 74.8918537358442 108.592056069088)
(1757.45458028987 131.23308329535 226.990783710695)
(2558.31181561919 148.992936317282 -483.194075245232)
(1630.3418830539 -345.480369015871 -419.438378656706)
(1541.0262677981 -136.785155814482 269.111393979698)
(2440.74577592224 -201.600478152996 518.672460069099)
(1710.6693191338 99.1533631139961 -113.756601965355)
(1520.89497249706 171.955775471602 -91.305266913915)
(2169.55121209267 -364.189976278358 -149.642763893019)
(2046.58982084826 -149.228195615698 -483.957778660029)
(1958.9937377039 138.628354625307 259.552771034569)
(2160.06391603079 133.013134709425 97.0119670296593)
(1562.00041384441 202.277068128372 -331.675397279354)
(1882.51934986104 33.9814516355914 -5.44409815416747)
(1943.16646183766 226.278697980853 137.375854217553)
(1811.07607365254 41.6183947694632 -182.436923697915)
(1747.23367423338 309.767657966981 -264.347214897699)
(1206.8698996479 16.5838076193549 222.100849255276)
(2384.14632908449 809.028717610523 285.065037052945)
(1795.97782475534 205.971625360434 119.495044553654)
(1773.83480380577 396.679706194214 422.381184126144)
(1938.31577241468 -236.364179109616 96.8107743178084)
(1427.86119765058 -128.85874282154 -55.8797359066847)
(1444.51696630892 398.107179782357 -622.939008239509)
(1515.20126360494 248.98727049762 184.054637631059)
(1636.45407720184 -74.6604857482519 346.839464976556)
(1644.05264551685 378.35596114052 138.764270540687)
(2069.09717152927 562.645538927149 -114.029585544405)
(1869.75602997489 19.8646906112105 171.072574641437)
(1819.06187014366 -275.901019649577 -5.08324470528017)
(1560.66368342226 205.425955672847 -21.8450663447176)
(1668.0753243963 -198.950193576866 -74.4356208771931)
(1567.39197958974 145.658046346187 225.572091210404)
(2273.73076610809 -148.666063907714 -507.379702159961)
(1553.13830362657 60.8597216070545 -47.3004002405386)
(1551.65058182695 -55.3121530852444 101.554831735921)
(1964.26307820819 -446.433166297928 -47.0159121271841)
(1436.96542415992 -508.101527892415 97.1520191913586)
(2085.39965255717 277.815514682188 -171.944339632998)
(1557.59476133776 327.116723201712 201.917626575856)
(1427.69638469245 -341.445956808378 62.1765150638664)
(1422.09001821754 -241.06470414787 -69.495963664312)
(2197.79929731124 72.4167343559542 -84.3730660802368)
(2044.47517467538 -188.350372139205 443.268482867994)
(1556.6683552939 -16.0186750879874 297.034260341361)
(1375.37008148178 -110.181011135008 63.362697204197)
(1070.81325264533 669.480795482241 -76.0320731003611)
(1989.64942687305 166.659606012198 313.591491132716)
(2341.5271494918 70.2527542252209 245.637987195458)
(2255.309525612 326.998985632576 -7.43351200804011)
(2308.87077899831 346.267353569489 -319.455883195793)
(1369.31522228907 -88.0697326017357 -271.409500637002)
(1696.1115346428 290.045540192761 238.376318001292)
(2073.59157518853 394.359121838005 -565.450896005198)
(2244.61605257802 45.0946496920908 133.735445703412)
(1137.44716678144 -242.837853577424 -159.282898455177)
(2025.31855431855 82.0973360029718 -541.612113090035)
(1431.77676064436 -87.8144439730567 100.803908703709)
(2059.22745215299 -137.919298056362 131.511957322425)
(1855.98012290819 -133.110726188615 -44.9749506234153)
(2409.52439105535 -37.7106539638459 127.154102491225)
(1539.75025229583 -467.488303367586 -133.824297467242)
(1505.28753358606 128.597030383848 -160.254732255536)
(2149.03524600344 184.132424759407 -526.762194785881)
(1954.35021099474 343.275009870118 -844.351542427264)
(2083.00119845261 315.251814545076 406.262949718159)
(2153.09645795833 74.4263281139018 95.0220782728426)
(1773.70024165127 215.227605699702 -226.69464128195)
(2050.77163442304 -439.61236356577 -79.1100378032511)
(1357.75011618501 -71.4950496486168 104.612807302632)
(1837.44199307414 -167.347688712997 -462.836105062415)
(2072.75231797295 154.799654477911 -377.602422521385)
(1976.68823726789 -201.372935709162 425.254423748922)
(1625.06019225313 -228.782212294535 344.456451372696)
(2177.45727734217 -282.614976645842 -353.978305801639)
(1638.22625825875 454.822601123461 -218.221057060794)
(1649.52045800829 -169.534112717749 152.720743178467)
(1832.43998825625 405.456429998266 -345.694950008688)
(1895.51657935986 -305.997111701728 -251.830814509813)
(2352.87990992368 3.07072521620296 -421.902806451827)
(1871.17927155726 -259.249483155594 -147.170156688734)
(1938.52756538728 -72.3251949871782 59.1902742577292)
(1914.88564683993 -32.0054761621201 536.879739680889)
(1974.20613850384 174.940013166356 -472.950289548888)
(2424.400267172 197.514946771081 169.194779934253)
(2016.0792011398 582.488644397722 58.1357143436491)
(1306.53751337929 118.106512288207 248.115773632456)
(1722.25007722515 266.033255194135 397.080130768364)
(1634.16017426976 142.380911558748 -142.167770431076)
(1806.96102368278 -280.181214482613 74.3773695102087)
(1329.94277493707 -650.645342867203 -178.634322384254)
(1879.2797511127 -289.934470328009 75.9825593065688)
(2177.97261511123 -641.057090361935 -71.1013573317426)
(1938.43043325226 -693.695393721759 -139.843474854709)
(1715.61441843041 186.963469340743 98.9656344243707)
(2072.48628570465 38.9734876552321 -158.474059813432)
(1768.4892606159 137.880094253855 -341.513557611728)
(1697.3244010822 13.0219332016874 -81.5802115574441)
(1455.9284080874 20.217022328142 200.207741313065)
(943.914595176863 21.6012508495686 264.947757502159)
(1869.6009505208 595.558891073759 -165.932136519699)
(1817.57126192217 487.929600631948 -368.659220119358)
(1758.89472315081 196.990558096861 -79.630909819403)
(2116.80764974634 -179.660383838983 416.496995175925)
(2121.76551612476 356.310509481079 -479.04759864283)
(1765.59479356432 387.37872906769 -93.4624042194961)
(1671.99219726582 -685.244966771715 580.999041945305)
(1416.02673735033 -183.411468560191 -118.450250758717)
(1290.31545603733 124.272439247321 -198.759443957746)
(1790.42809540623 553.264384020487 -532.072530792763)
(1881.89923716277 -445.002987080159 -107.181790670212)
(2012.48267968668 -195.181796272597 -30.3106790413649)
(2198.61667337759 343.907133940558 -54.6912192439358)
(1922.87681605431 -269.015387384013 -83.6614359744539)
(1568.8966614994 -165.407411334394 -298.929133272888)
(1289.23980314007 15.1951338234896 -394.18714292444)
(1672.70781041163 -348.840080006732 -50.3902817318226)
(1404.05300910868 -79.2628088204686 340.858142824224)
(1191.51404485968 113.149701696753 47.0303897672032)
(1334.06507705644 279.843682406357 -90.5845426875454)
(1964.2113622461 -161.711078229105 -52.6858381895552)
(1389.01205964443 -4.79180892113844 328.836210237071)
(1633.73705775436 -291.454190666353 -159.338338501278)
(1604.80919503467 -581.774315855032 811.805642152272)
(1339.19533346228 21.0892505910221 392.554517846084)
(1473.54437317769 -857.715935314721 456.128764460759)
(1514.3465281587 -145.94130924043 -326.335620804886)
(1844.72377967873 767.610695915446 -167.22773894386)
(1754.20420493109 -376.21995985786 125.075945884987)
(1378.36818324985 53.5343621873899 -3.2123678357168)
(1622.02236294392 -82.218547834927 89.3730803899437)
(1449.34503069858 -273.927114799253 331.840785722187)
(1579.46452608556 -252.472097316441 156.41799040844)
(1864.99056128036 -377.638144195957 -125.479990579125)
(1599.46614670894 81.2587879394359 -29.5091960859388)
(1754.73345647625 45.0457179647332 236.146449850239)
(1795.64107751409 85.4560090902889 -899.204637705556)
(1558.6486848652 -434.262477276334 463.28251855687)
(2288.12190802451 -482.952073574252 -374.748469701114)
(2044.81444282893 21.8594932471165 285.793981714813)
(1480.64288698105 424.088296726409 126.37646512478)
(1939.95000355229 -124.763547362312 277.67842766708)
(1795.99575271215 99.8961824615951 -684.270099722938)
(1501.47235777969 231.416295908818 -94.9713245445542)
(2404.98951685614 -221.050237497557 -201.151907577128)
(1364.83974328169 87.7891589908515 -284.689935693809)
(1557.54866737284 328.288770367751 -265.711833832782)
(1573.33423880517 -367.70857676791 123.392368269382)
(1234.27931811453 86.7181910617343 778.227034614008)
(1909.53744225215 102.583432264633 -118.344763643696)
(1802.92733779776 -381.709765113519 323.803928854967)
(1886.49715395235 263.026896759584 -397.924528885341)
(1569.17789277765 -77.2874314804958 -373.925232847935)
(1571.05307055505 171.742888556115 -243.41882833642)
(1665.30046347922 71.4735343196895 -227.870337093364)
(1879.67697055256 -424.998383062074 290.708626420604)
(2094.43016811852 -277.329726609371 -595.800466516144)
(1754.39366660841 487.55863643296 -113.72552805642)
(2178.31878055458 -567.878294742216 159.590783401874)
(1597.89815125252 -215.599214080134 -24.0562620010335)
(1488.51179011656 417.246329234091 -162.108998073463)
(1802.34995438247 -59.2187156753404 -332.648516911172)
(1800.82699674552 -311.882541089313 -355.287207536898)
(1691.49680354679 -187.450959792096 107.68740614618)
(1660.17553238379 -188.308639390272 49.7934781232956)
(1721.89873728098 398.343458542494 -244.302878664276)
(2165.11019881269 400.739382958438 -740.999921697568)
(1946.74660588464 -274.346657237044 -272.076354840829)
(1491.7405138691 138.925012331703 22.5398638095562)
(1844.54210443949 -22.2289850921071 3.28016823363915)
(2465.76065089853 -33.3112664154199 -613.889925359951)
(1869.13262037765 28.6571642972517 -275.08151377359)
(1811.28012921687 -102.373715983376 195.230859474396)
(1795.126505929 -34.004933432645 268.710776176672)
(1307.10563314591 -401.920805655197 -455.179004843656)
(1693.10716586939 265.347161049399 -144.773074887982)
(2098.54325748924 280.107150789738 155.411602678524)
(1930.43917754609 -570.330520942118 -66.035658758289)
(1984.76181517066 40.1018683782105 -39.7780821985212)
(2363.71278058026 -243.488022641936 55.9707524183477)
(2305.43428037344 -38.045293265592 139.951276925706)
(1923.20708164723 425.229538634075 -317.496331546153)
(2036.91166059792 129.677945427044 -159.178649390175)
(1522.69930958878 -380.258888487046 -91.0056556217241)
(1490.23684142921 223.478212323679 -193.355007753819)
(1585.37716036788 -527.390167705277 -234.559528348085)
(1750.43800999066 -241.581884538458 326.621641120517)
(1797.346255322 84.7750751017767 53.1577651269727)
(1323.81322736785 -406.195039341488 -386.644538874439)
(1650.72626064657 -56.4270952350321 296.276713079353)
(984.691535438234 -86.1087645256282 72.1748855789252)
(2113.7663005549 -439.421220569302 -364.703899075258)
(2157.41579248084 -690.063634155768 351.444017455195)
(1522.81947601313 221.25022514139 -303.992802108907)
(1976.01535835284 -397.635157145164 -196.35748272934)
(1589.60337538605 2.58856095479264 298.445168331775)
(1587.60649475475 335.370369280717 161.314201470089)
(1517.87651708046 -487.912810709282 -76.8553509401386)
(955.739366026399 108.948481966869 184.770973988357)
(2081.47723696862 -130.03587710494 -323.138192945597)
(2108.98894885315 -266.433775140732 -160.752584333231)
(1545.30199213755 358.789750787691 37.5287257427969)
(1317.18842777119 219.455385728685 -67.3818946589427)
(2280.11577357311 486.968771930845 -669.400492988902)
(1605.91172777799 -354.993839965733 27.4225220412883)
(2091.23021088624 -152.996653164021 530.209803996183)
(1704.0479257697 -77.9103132590323 121.663033420967)
(1850.39811657637 -187.506694712468 -716.164861888352)
(1544.29696633755 512.137061901012 20.5947979991751)
(2330.02367154082 -248.658300835536 312.851510646899)
(1615.74967457986 -174.372987758007 -75.0635793459058)
(1504.47919018108 -477.729019603474 -307.900959063049)
(1990.08519325729 153.872452468351 -187.60969548764)
(2022.03094841776 554.890542640471 -104.446083139312)
(2154.29979277596 193.639667634958 222.391924211676)
(1213.61964362657 393.525035825197 -20.3594954716821)
(1863.83657998053 -143.539617308026 173.438577231477)
(1753.53502259238 137.452780135709 -3.0090236055373)
(2191.47324782439 11.1461634899597 -98.9977532494957)
(1560.67073926414 -285.080623610551 58.2272900491648)
(1712.35425102393 141.498109008708 25.6310807865497)
(1476.51003329491 121.365355675533 244.586627755044)
(2198.44146058911 -159.459979675491 106.99824337636)
(1748.39370098656 -42.0363540809424 464.384184756707)
(1920.39371825752 -607.590439178072 267.379039835286)
(1916.09689436715 225.987054985203 757.017973252925)
(1837.33822286224 300.10546670781 -145.479670910431)
(1872.93377617927 61.1717403739057 -139.66829006791)
(1491.98452131103 -114.269405566724 -762.614242931006)
(1679.25153259823 57.1802668188548 -458.006538642958)
(1983.35614773931 355.473675360067 -263.476967947071)
(1398.74864570943 61.4739780724607 268.185338187165)
(1621.24563456973 48.1819613447869 103.145555244256)
(1728.3309067875 -283.610512887775 137.129455344423)
(2065.63233907161 128.447115981989 -188.210255918063)
(2141.02848521134 564.490502320239 -280.602087150241)
(1480.308872977 -433.46342023827 571.358052369998)
(1833.07504798572 -319.447532515147 -414.427836156191)
(1566.1768155195 692.432025675125 315.421532864415)
(1926.6189710041 352.857313314057 102.715894786893)
(1966.90546844022 -99.4082463749812 -759.883355274993)
(1630.95992730887 -28.1507863077238 350.597066835314)
(1778.35968281636 20.6898706975954 -486.634920998098)
(1502.63088742724 544.548262230078 229.673498775374)
(1814.24810150329 -655.564092645344 -359.703317517465)
(1758.06352860289 -328.767324934858 432.75089959148)
(1489.10964712463 -306.896814068517 -242.368362482053)
(1454.54546562141 74.2730545718453 164.282521721933)
(1888.20313649041 -153.322647709296 -313.037509613241)
(1196.16212958141 114.972743241151 221.513982726555)
(1909.94793017787 130.930999352904 129.623551650263)
(1034.75191785727 -166.076986946974 -181.871780355232)
(1953.57291241217 60.7625906591235 63.6478485317353)
(2150.03784607627 -3.1237641716333 772.884987682398)
(1909.85092508374 -20.7571958481233 83.149273171248)
(1866.32022709385 -211.870892518053 333.204378245631)
(1525.17255955336 -419.175187580231 -137.425504342256)
(2268.6110591829 203.343280353122 -10.9982856062554)
(1310.82230333485 -19.0598709935133 340.463500771354)
(1565.13023911041 180.853334809965 -35.1932511940056)
(1622.67485750874 -51.0759501971282 504.0025677942)
(1700.77100548228 -44.5863721516585 -48.5065583031075)
(1881.73759584276 149.778336203298 -147.523759492587)
(1832.63524231594 179.318010517902 -44.7091677823229)
(2033.69356781417 646.239520267743 -134.608055217812)
(1564.75978185084 41.1609523214807 164.782011927154)
(1605.31196285987 -411.475029835907 -253.067167254169)
(2029.65064804127 274.197316576865 155.843038137485)
(1361.04950394494 96.8948945157128 312.672654222763)
(1962.45938122095 -343.166532362044 -528.113227529233)
(1772.15955334585 -577.012652342451 632.261113074461)
(1374.0749587052 -220.615862959705 728.764011117515)
(1607.52276901366 -150.14282576669 -42.3521756070667)
(1730.7463772629 -62.0020240761582 -83.6034002171721)
(2715.43879729414 418.398355961394 150.323391011693)
(1338.23352029494 118.384343276959 -332.336194949486)
(2323.74019258381 -273.42339023366 -263.742850911717)
(1495.56999863366 39.286749807954 -45.4226475057106)
(2050.95356088076 -247.710803131272 -76.6096776256136)
(1948.36371268034 154.019251377953 146.786243694022)
(2146.25531877355 -162.771644438645 -184.190830218989)
(1632.74525416142 -148.38917280001 58.7525739955991)
(1752.03805262424 -217.021222439938 -136.606640875465)
(1876.37158027771 171.635118463542 -293.383218724887)
(1549.70892281089 195.103521219105 -282.687641089494)
(1653.55651211645 224.95490971397 -245.37870237548)
(1746.53785678417 384.222126762161 -498.931750156681)
(1615.52723459452 147.448707777024 97.9455307630206)
(1473.27606529378 565.958013965268 -180.982450380486)
(1610.58174695487 178.817480273118 168.388883050635)
(1133.96758756121 -337.109568362164 -186.856568715502)
(1597.12585992964 -65.2538956465827 41.1402928417774)
(1805.44653309584 451.921752483431 -641.286418436181)
(1497.05140894845 -155.234204629366 232.741559083843)
(1126.20129502109 602.605858211533 -13.172178343873)
(2187.871028309 -318.378867092972 445.065688618714)
(1828.43317756409 682.142430108576 189.111135322596)
(1160.16087338667 -257.671337411519 296.474611069668)
(1776.50890733608 -258.352383899562 339.534102094934)
(1584.14450494756 -189.2170628627 177.819194977952)
(1386.87722803517 431.692191224148 -747.993587673916)
(1989.56436806437 124.119196428538 106.518950644097)
(2170.8518348586 274.983759549515 499.498367016559)
(1952.51953210042 -519.249745840013 119.388041007435)
(2317.05486262647 144.563030804094 30.559176187445)
(1495.32727621058 -336.526954071284 67.4541881831546)
(1844.63080475679 146.591583823412 17.9674163515114)
(1881.87912995969 -122.234396996836 -26.6798075120571)
(1683.90574428259 369.656529593771 -362.587890153409)
(1891.90984431774 -236.497354359282 -171.764683857691)
(1401.29254474584 169.265435053266 620.859771221089)
(1288.65614906917 -190.144580231968 347.942098556358)
(1918.44699003451 289.282207236652 855.842575734138)
(1632.31477486213 206.98430143842 232.594754331047)
(1728.96405636924 -451.532658014488 126.537959696308)
(1843.51963234551 643.690725735413 316.931835219789)
(1815.36195898293 128.110077822111 -323.61850685495)
(2417.10450275364 354.40292390653 -64.6752135121746)
(1607.52704816627 -105.156037417045 -47.2428550336465)
(1729.41815531754 310.767247758411 -61.523827241991)
(1757.50809278285 106.606604927591 -86.303221124788)
(1866.33580226247 99.4691574435682 -258.611894341689)
(2143.29733724074 245.350766419786 269.198607125908)
(1403.03852225157 -436.419642271711 553.997061028512)
(1137.13248079026 -261.51868033396 -527.967877814084)
(1649.3006744439 -39.1923542151426 220.555248803774)
(1170.65148795713 -106.538121760333 100.815180031726)
(1986.37834339025 6.73999394831879 109.660588905907)
(989.115343902807 -594.092293781414 -232.523906107426)
(1581.79166239037 -337.664506278148 -135.992463475605)
(1466.65310445539 -413.049681536101 -433.902013505041)
(2103.22005548737 -939.323944402169 -203.500533800366)
(1463.39863137723 23.0869997425029 -379.434496992143)
(2117.02423499771 -268.879566554422 57.6659088804937)
(1329.75783367413 183.317867395836 -145.870201841969)
(1545.30524403388 -362.801487864047 -541.400953529721)
(1653.27507616213 -21.9503999973813 -83.801765713329)
(1256.75304144906 -115.439467171113 41.6191840144711)
(1636.32251434041 181.581947984281 106.125287989349)
(1902.83493153233 -201.821105158719 224.300630900757)
(1678.19966096409 469.885301854105 -108.893009666847)
(1667.80921401128 364.754178679325 170.364899998498)
(2006.37760177206 -542.540917624899 -53.992970225137)
(1597.07004222997 353.606313302372 596.019807121095)
(1999.93055622654 398.667296974337 -270.007467674995)
(1595.87760183294 445.007396760959 -37.5016181605649)
(2040.8716194418 -524.011414214969 -187.07132623054)
(2023.88235212184 67.7025812906194 288.240530385827)
(2191.5701734205 263.590832018568 129.698047522191)
(1475.32820831347 394.840242247235 88.8118729867719)
(2059.19274171926 157.392315994594 -141.801943599081)
(1233.34044773405 420.569567754465 -16.8845887811512)
(2017.31325361034 -482.960559695762 33.5289600654631)
(1553.74763428401 -681.099488586542 -449.354518337235)
(1690.58776798598 115.6976616919 -450.620790373233)
(1238.71550777923 80.7940369767661 445.203090579426)
(1528.38583015303 -22.3886268074541 -345.189553609438)
(2052.65710033454 -101.006516368323 90.3794464406681)
(2395.93467869078 428.718239948082 309.5988622278)
(1686.90912480135 -14.9198126859589 182.908892242223)
(1796.35088268207 -10.1630519710931 -213.148152869617)
(2046.36884631186 489.474188837281 229.706071317068)
(1338.31521408448 69.4967851930785 378.393209440687)
(1659.71681291617 -393.505558000396 18.5987797557625)
(2077.95287050133 -380.548187697705 129.643226882659)
(2130.68515210623 -156.174452785939 -592.674942236323)
(1638.53531088007 -740.334899639887 337.906066901741)
(1988.56135762738 -329.00943062739 -56.4279382267888)
(1698.64003136937 -106.241506599869 73.3890262774908)
(1409.49634183427 43.7369003826501 396.742890721128)
(1749.60027382755 -389.109108202811 355.399633826433)
(2405.16426219035 -172.651621034781 -600.821190499507)
(1698.29170309973 -38.0803341387479 -692.674664880067)
(1557.28718630279 -275.258208193855 12.683091752092)
(1524.51963775016 -136.915072865877 -209.866836062928)
(1963.24360361132 552.52151329475 165.450651149861)
(2149.77483560315 -533.955912975385 104.488703160842)
(1628.62833816711 207.45931654717 -0.0812379789326647)