/*--------------------------------*- C++ -*----------------------------------*\
  =========                 |
  \\      /  F ield         | OpenFOAM: The Open Source CFD Toolbox
   \\    /   O peration     | Website:  https://openfoam.org
    \\  /    A nd           | Version:  7
     \\/     M anipulation  |
\*---------------------------------------------------------------------------*/
FoamFile
{
    version     2.0;
    format      binary;
    class       polyBoundaryMesh;
    location    "constant/heater/polyMesh";
    object      boundary;
}
// * * * * * * * * * * * * * * * * * * * * * * * * * * * * * * * * * * * * * //

4
(
    heaterInlet
    {
        type            patch;
        nFaces          152;
        startFace       48448;
    }
    heaterOutlet
    {
        type            patch;
        nFaces          152;
        startFace       48600;
    }
    heaterExternal
    {
        type            wall;
        inGroups        List<word> 1(wall);
        nFaces          5280;
        startFace       48752;
    }
    heater_to_metal
    {
        type            mappedWall;
        inGroups        List<word> 1(wall);
        nFaces          3360;
        startFace       54032;
        sampleMode      nearestPatchFace;
        sampleRegion    metal;
        samplePatch     metal_to_heater;
    }
)

// ************************************************************************* //
