/*--------------------------------*- C++ -*----------------------------------*\
  =========                 |
  \\      /  F ield         | OpenFOAM: The Open Source CFD Toolbox
   \\    /   O peration     | Website:  https://openfoam.org
    \\  /    A nd           | Version:  7
     \\/     M anipulation  |
\*---------------------------------------------------------------------------*/
FoamFile
{
    version     2.0;
    format      ascii;
    class       dictionary;
    object      codeDict;
} 

HPCParticleT
{
  code
  #{    
    const fvMesh& fluidMeshRef = db().parent().lookupObject<fvMesh>("fluid");
    label fluidBoundPatchId=fluidMeshRef.boundaryMesh().findPatchID("fluidBound");
    Info<<"HPCParticleT Has been accessed!!!!!!!!!!!!!!!" <<nl;
    const volScalarField& TFluid = fluidMeshRef.lookupObject<volScalarField>("T");     

    operator==(TFluid.boundaryField()[fluidBoundPatchId][0]); 

  #};
}

HPCParticleU
{
  code
  #{    
    const fvMesh& fluidMeshRef = db().parent().lookupObject<fvMesh>("fluid");
    label fluidBoundPatchId=fluidMeshRef.boundaryMesh().findPatchID("fluidBound");

    const volVectorField& UFluid = fluidMeshRef.lookupObject<volVectorField>("U");     

    operator==(UFluid.boundaryField()[fluidBoundPatchId][0]);

  #};
}
      