/*--------------------------------*- C++ -*----------------------------------*\
  =========                 |
  \\      /  F ield         | OpenFOAM: The Open Source CFD Toolbox
   \\    /   O peration     | Website:  https://openfoam.org
    \\  /    A nd           | Version:  7
     \\/     M anipulation  |
\*---------------------------------------------------------------------------*/
FoamFile
{
    version     2.0;
    format      ascii;
    class       dictionary;
    object      codeDict;
} 

HPCParticleT
{
  code
  #{    
    const fvMesh& fluidMeshRef = db().parent().lookupObject<fvMesh>("fluid");
    const scalar idx=fluidMeshRef.nCells()-1;

    const volScalarField& TFluid = fluidMeshRef.lookupObject<volScalarField>("T");     
    
    Info<< nl << "DSMC TEMP BC";
    Info<< nl << "Expected Temp: 900";
    Info<< nl << "Calculated Temp: "<< (TFluid[idx]);
    Info<< nl << "Difference: "<< 900-(TFluid[idx]) << endl;

    operator==(TFluid[idx]); 

  #};
}

HPCParticleU
{
  code
  #{    
    const fvMesh& fluidMeshRef = db().parent().lookupObject<fvMesh>("fluid");
    const scalar idx=fluidMeshRef.nCells()-1;

    const volVectorField& UFluid = fluidMeshRef.lookupObject<volVectorField>("U");     
    Info<< nl << "DSMC U BC";
    Info<< nl << "Calculated U: "<< (UFluid[idx]);
    operator==(UFluid[idx]); 

  #};
}
      