/*--------------------------------*- C++ -*----------------------------------*\
  =========                 |
  \\      /  F ield         | OpenFOAM: The Open Source CFD Toolbox
   \\    /   O peration     | Website:  https://openfoam.org
    \\  /    A nd           | Version:  7
     \\/     M anipulation  |
\*---------------------------------------------------------------------------*/
FoamFile
{
    version     2.0;
    format      ascii;
    class       dictionary;
    location    "system";
    object      dsmcInitialiseDict;
}
// * * * * * * * * * * * * * * * * * * * * * * * * * * * * * * * * * * * * * //
species
{
    species1        N2;
};   

numberDensities
{
    density1          2.1505E+22  ;//9.08471e19;
    density2          2.6882E+21;//2.63556e19;
};

distributions
{
    start1          0;
    stop1           300;
    start2          300;
    stop2           800;
};

temperature     
{
    temp1        0.0034;
    temp2        0.0027;
};

velocity        (0 0 0);