/*--------------------------------*- C++ -*----------------------------------*\
  =========                 |
  \\      /  F ield         | OpenFOAM: The Open Source CFD Toolbox
   \\    /   O peration     | Website:  https://openfoam.org
    \\  /    A nd           | Version:  7
     \\/     M anipulation  |
\*---------------------------------------------------------------------------*/
FoamFile
{
    version     2.0;
    format      binary;
    class       polyBoundaryMesh;
    location    "constant/fluid/polyMesh";
    object      boundary;
}
// * * * * * * * * * * * * * * * * * * * * * * * * * * * * * * * * * * * * * //

3
(
    fluidInlet
    {
        type            patch;
        nFaces          436;
        startFace       118604;
    }
    fluidOutlet
    {
        type            patch;
        nFaces          436;
        startFace       119040;
    }
    fluid_to_metal
    {
        type            mappedWall;
        inGroups        List<word> 1(wall);
        nFaces          15360;
        startFace       119476;
        sampleMode      nearestPatchFace;
        sampleRegion    metal;
        samplePatch     metal_to_fluid;
    }
)

// ************************************************************************* //
