/*--------------------------------*- C++ -*----------------------------------*\
  =========                 |
  \\      /  F ield         | OpenFOAM: The Open Source CFD Toolbox
   \\    /   O peration     | Website:  https://openfoam.org
    \\  /    A nd           | Version:  7
     \\/     M anipulation  |
\*---------------------------------------------------------------------------*/
FoamFile
{
    version     2.0;
    format      ascii;
    class       scalarField;
    location    "0/lagrangian/dsmc";
    object      Ei;
}
// * * * * * * * * * * * * * * * * * * * * * * * * * * * * * * * * * * * * * //


31788
(
1.31803e-20
2.7282e-21
4.59964e-20
7.61481e-22
6.85223e-21
1.91729e-21
1.47676e-20
9.71762e-22
4.02436e-20
1.99319e-21
2.29661e-20
7.89458e-21
1.03766e-20
7.90817e-21
2.02333e-21
5.74829e-21
3.48081e-21
3.33478e-21
2.96818e-20
1.33437e-20
7.06349e-22
6.22265e-22
7.20476e-21
3.56124e-20
5.76935e-21
3.91528e-21
1.41326e-20
2.47863e-20
1.31729e-20
2.65058e-21
1.04942e-20
6.4335e-21
2.53202e-21
2.54363e-20
8.12014e-21
5.16519e-21
1.59485e-21
2.66375e-20
4.85656e-20
4.23357e-21
3.12524e-20
1.55836e-20
1.30195e-20
6.82182e-21
6.07844e-21
2.50888e-20
6.44776e-21
4.3014e-21
2.21231e-20
1.4113e-20
2.05047e-21
2.62447e-20
1.51468e-21
1.46858e-20
4.46183e-22
8.86472e-21
8.68939e-21
1.59281e-20
2.7956e-21
8.95537e-21
3.70979e-21
3.77332e-20
1.76835e-20
1.99596e-20
2.05502e-20
2.20316e-20
1.37414e-20
8.36716e-21
1.8712e-21
2.95581e-21
3.98216e-21
1.43845e-20
7.64446e-22
2.62432e-20
1.43097e-20
8.6846e-21
1.04289e-20
1.26458e-21
3.58241e-20
4.51886e-21
1.18211e-20
3.45827e-21
1.50012e-20
1.32709e-20
1.4965e-20
7.58483e-21
6.42221e-22
1.78582e-21
2.90469e-20
3.02005e-20
3.76115e-20
5.30508e-22
3.24182e-20
1.13641e-21
8.50448e-21
1.46046e-20
1.08896e-20
4.471e-20
8.19797e-21
1.20799e-20
1.71515e-20
3.35166e-21
2.29114e-21
1.41626e-20
7.44199e-21
2.70584e-20
7.3048e-21
3.93837e-21
2.49877e-20
2.52346e-21
2.12549e-20
2.33586e-20
4.61156e-21
1.08768e-20
1.79158e-20
1.03675e-20
1.26084e-20
4.6251e-21
2.08571e-20
2.74256e-20
1.19302e-20
1.24746e-20
1.16575e-20
1.57964e-21
1.30864e-21
7.54348e-21
1.85943e-20
1.94946e-20
1.30303e-21
1.85152e-21
2.51578e-22
1.87775e-21
1.24127e-20
2.26726e-20
4.29051e-21
3.71964e-21
5.08154e-21
1.8008e-21
1.92608e-21
2.81858e-21
2.26377e-21
2.01774e-20
2.18456e-20
5.33671e-21
5.65626e-21
1.29191e-20
3.08298e-21
1.58457e-20
2.4398e-21
2.56997e-21
3.38242e-21
3.21453e-21
1.77173e-20
9.08378e-21
3.61514e-20
3.07199e-21
4.19859e-20
1.95245e-20
8.57743e-21
2.77656e-21
2.78621e-21
2.76425e-21
1.25997e-20
2.96824e-20
4.11185e-21
5.72218e-21
1.34104e-21
6.4967e-21
7.81757e-21
2.59301e-20
5.25747e-21
7.79813e-21
2.16354e-20
2.96168e-20
3.85407e-21
2.04539e-20
4.37947e-21
8.13453e-21
1.10437e-20
1.00224e-20
4.87245e-20
2.54693e-21
3.15446e-20
4.36224e-21
1.34098e-20
1.74006e-20
3.80116e-20
8.91971e-21
3.33394e-21
8.87634e-21
3.99121e-20
1.77932e-20
1.2511e-20
1.2689e-20
1.22721e-20
7.72283e-21
1.56103e-21
8.8523e-21
2.28152e-20
9.41846e-21
3.0948e-21
1.73731e-21
7.83425e-21
3.53834e-21
1.86977e-20
3.1662e-21
7.30718e-21
6.10599e-22
1.08253e-20
6.15119e-21
3.63518e-20
2.1117e-21
1.05044e-20
2.29302e-20
9.02162e-21
9.28208e-21
5.71939e-20
7.19765e-23
1.00334e-20
4.19167e-21
1.8382e-20
7.01855e-21
6.73655e-20
1.19044e-20
2.93421e-22
3.70206e-21
2.521e-21
3.04431e-21
8.36447e-21
1.1894e-20
1.33456e-20
7.28224e-21
1.29857e-20
3.16594e-20
1.80879e-20
3.05055e-21
4.89238e-22
1.47486e-20
1.28034e-20
1.31164e-21
1.81365e-20
8.30962e-22
2.02541e-20
9.19321e-21
9.65875e-21
2.2511e-21
3.32821e-21
9.74649e-21
1.48966e-20
5.53898e-21
4.57443e-21
4.20047e-21
2.6204e-20
3.47593e-21
1.46311e-20
3.49606e-20
2.53848e-21
5.75559e-21
1.66149e-20
3.34222e-21
1.09917e-20
3.54226e-20
1.35329e-21
9.1512e-21
5.42429e-21
7.5126e-22
4.1849e-21
1.59468e-21
2.74196e-20
3.68573e-20
7.53238e-21
4.85889e-21
2.24465e-20
1.54363e-20
1.12753e-20
1.63291e-20
1.86099e-21
1.51357e-21
4.65226e-22
1.59729e-21
3.35023e-20
6.41458e-21
1.43815e-20
2.10978e-21
4.65515e-21
8.40633e-21
2.40525e-20
3.44311e-21
1.82176e-21
4.92409e-21
5.46186e-21
2.58125e-20
9.03444e-21
1.71192e-21
2.95796e-21
7.25323e-20
3.93575e-21
2.7685e-21
4.44293e-20
4.30424e-21
8.64925e-22
2.99204e-20
1.73704e-20
9.27348e-22
3.49145e-21
4.95787e-21
3.94295e-20
2.35335e-21
1.694e-20
7.67798e-21
2.26247e-20
2.70615e-20
3.18582e-20
2.00399e-20
7.27923e-21
1.99546e-21
4.43936e-22
5.90427e-21
1.82825e-21
2.28316e-20
1.63131e-20
1.78122e-20
5.78802e-22
2.98457e-21
1.95889e-20
9.84401e-22
1.22705e-20
4.90092e-21
1.70687e-21
1.27239e-21
2.29505e-20
3.1118e-20
2.25223e-20
1.38847e-20
3.88314e-21
3.24023e-21
9.96738e-21
2.38026e-22
2.34665e-20
3.02613e-22
8.31654e-21
3.55384e-20
4.30493e-20
4.51962e-21
5.32734e-21
1.25685e-21
1.00275e-20
2.82911e-20
2.75477e-20
1.34388e-20
3.03486e-20
8.85761e-21
1.06859e-20
3.36801e-21
5.38476e-22
1.28549e-21
5.34731e-21
3.77338e-21
1.20476e-20
1.44106e-20
1.02303e-21
7.74579e-21
2.01932e-20
7.22048e-21
2.52832e-20
6.81129e-21
3.36792e-21
1.26993e-20
1.55711e-20
1.15773e-20
2.91839e-21
2.21746e-22
1.64965e-21
2.46234e-21
1.01329e-20
1.18569e-20
3.46329e-21
3.99614e-21
6.5843e-21
4.84027e-22
3.56858e-21
7.75238e-21
1.81133e-20
1.30047e-20
1.3106e-20
2.572e-21
2.06153e-21
2.08774e-20
9.03397e-21
9.71911e-22
6.35137e-22
1.94453e-20
5.16948e-21
2.76278e-20
8.40773e-21
1.53845e-20
1.93419e-20
5.85886e-23
4.52035e-21
6.30868e-21
2.2272e-20
3.01059e-21
1.38252e-20
2.83548e-21
5.24054e-21
2.70014e-22
6.43224e-21
2.39973e-20
3.81242e-21
3.00062e-21
2.79508e-20
8.49273e-21
3.98342e-22
3.09362e-22
4.10889e-20
7.46382e-21
1.68834e-20
1.44095e-21
1.59084e-20
3.7448e-22
1.38726e-20
3.35829e-20
2.65784e-20
3.83464e-22
7.17303e-21
4.62293e-21
5.0503e-21
3.71179e-21
1.46013e-20
6.18177e-21
2.17158e-20
1.18326e-20
4.00613e-20
1.57932e-21
1.45892e-21
3.90312e-21
9.54277e-21
2.56756e-21
5.08082e-21
1.10339e-20
1.92713e-21
1.29321e-21
1.50502e-21
2.90888e-21
4.8508e-21
6.90509e-21
1.10241e-20
6.36971e-21
3.03119e-20
2.77522e-21
8.13992e-21
7.53901e-21
1.61651e-20
5.97848e-21
1.03874e-20
3.6345e-20
1.65425e-20
3.08038e-21
7.67939e-21
4.22621e-21
1.24686e-20
5.50361e-23
2.9102e-20
1.61768e-20
6.3582e-21
4.44572e-21
3.50319e-21
7.28521e-21
1.33473e-21
5.17265e-21
1.0257e-20
3.9919e-20
3.51542e-21
9.02997e-21
4.12509e-20
1.86399e-20
1.57033e-21
5.52788e-23
5.22714e-21
1.34513e-20
1.09693e-20
1.92486e-20
1.92134e-20
1.65083e-20
1.76848e-20
8.53625e-21
1.7872e-21
1.33455e-20
1.55208e-20
3.94074e-21
1.43254e-20
7.34971e-22
7.57191e-22
3.04913e-21
3.06969e-21
4.8328e-21
4.38663e-21
2.14835e-20
9.10601e-21
2.83049e-21
6.89582e-21
5.85649e-21
3.1951e-20
8.16708e-21
7.75339e-21
2.90445e-21
1.57395e-20
3.74099e-21
6.80052e-22
2.76889e-21
3.00057e-20
1.85418e-20
2.13555e-20
1.27412e-21
1.29324e-20
2.18831e-20
1.18741e-20
9.83059e-23
6.88557e-21
3.57233e-20
2.9449e-21
4.90687e-21
3.42017e-21
2.05725e-20
2.21572e-20
6.22792e-21
2.64936e-21
7.43816e-21
4.5642e-20
6.47634e-22
1.44313e-20
2.15342e-21
5.40172e-21
9.76887e-21
2.12923e-20
1.32965e-20
2.88232e-21
5.08948e-21
2.87902e-21
5.76276e-21
2.78906e-20
1.21451e-21
1.55392e-20
3.47793e-21
1.21443e-20
7.28358e-21
2.40884e-22
7.66569e-21
1.43797e-20
1.98841e-21
5.06701e-21
9.84796e-22
3.39028e-20
1.42692e-20
1.49819e-20
1.70556e-20
1.95451e-21
3.60945e-21
6.33268e-22
1.97951e-20
1.06329e-20
7.11109e-21
4.80273e-20
2.10629e-20
2.93845e-20
6.34583e-21
8.56206e-21
1.00927e-20
3.59479e-21
4.98606e-21
2.3549e-21
2.24567e-20
4.18099e-20
3.4711e-20
7.56729e-22
2.69665e-21
2.70589e-21
5.70986e-22
3.67111e-22
5.39195e-21
6.35582e-22
8.08869e-21
2.50027e-20
1.2916e-21
1.56211e-20
2.31487e-20
1.11984e-20
8.44716e-21
6.20266e-22
1.10057e-20
5.35148e-20
1.33026e-20
1.76645e-20
1.40866e-20
1.71865e-21
2.78025e-20
1.53571e-20
6.61747e-20
3.66247e-20
5.64385e-21
3.73293e-20
2.85126e-21
1.49655e-20
1.86052e-20
3.53315e-20
9.25875e-22
4.36532e-20
1.00442e-20
3.10056e-21
7.86103e-22
8.84156e-23
1.50807e-20
8.23421e-21
1.05866e-20
2.48342e-20
1.27058e-20
2.16621e-21
2.4265e-21
1.31074e-21
1.63553e-20
1.79459e-20
3.32469e-21
3.54776e-21
2.19521e-20
6.98882e-21
2.64649e-21
2.46319e-20
3.54072e-20
1.56036e-20
1.22121e-20
8.29693e-21
1.75552e-21
1.04096e-21
1.79189e-20
3.19383e-21
7.1599e-21
2.33347e-20
3.84622e-20
3.94212e-21
2.85239e-20
5.88586e-21
2.55527e-20
1.52522e-20
2.3171e-20
2.22513e-20
3.16577e-21
2.14096e-21
4.88254e-21
2.05227e-20
1.33875e-20
2.8601e-20
3.14531e-20
4.76295e-21
1.18384e-20
1.59995e-20
5.63134e-21
5.81283e-21
7.29466e-21
2.07533e-20
3.83282e-20
4.60479e-21
6.53953e-21
1.07898e-20
4.82136e-20
1.28539e-20
1.79855e-20
1.2971e-20
2.58961e-21
8.66948e-21
5.08238e-21
3.01252e-21
1.33519e-20
1.54053e-20
2.36167e-21
3.96379e-21
1.69429e-21
4.6449e-21
1.16399e-20
1.94095e-21
2.62727e-20
3.96705e-21
3.53333e-22
4.40058e-21
1.69492e-22
1.6343e-21
1.03759e-20
6.06365e-22
2.02448e-20
5.76148e-22
6.34083e-22
2.87381e-20
2.68028e-20
3.91632e-22
2.43155e-21
3.05708e-21
1.13289e-21
7.41065e-21
1.79628e-20
3.17391e-20
3.03954e-20
2.59294e-20
2.31754e-20
2.03299e-20
2.42215e-21
7.32817e-21
3.90914e-20
2.51969e-21
2.06049e-20
5.71801e-21
2.53056e-21
1.20292e-20
4.00981e-20
2.96336e-21
1.81907e-20
2.1769e-20
6.9964e-21
7.43501e-21
2.39862e-20
1.80982e-20
4.09613e-21
1.87577e-20
2.53913e-21
4.98306e-21
4.01238e-21
3.41206e-20
2.53532e-20
6.30011e-21
6.11022e-21
3.26183e-22
1.91235e-21
1.21546e-20
4.34786e-21
4.02224e-21
8.25278e-22
6.4518e-21
4.40863e-21
2.16771e-22
2.39184e-20
4.49882e-21
6.2103e-21
7.95063e-21
2.68362e-20
2.18917e-20
3.3414e-21
5.4723e-21
8.90527e-21
9.31181e-22
8.77707e-21
1.09441e-20
3.58651e-20
2.27563e-20
4.82649e-20
1.0781e-20
1.33171e-20
2.1988e-21
1.12559e-20
1.59132e-20
6.55598e-21
2.29506e-22
2.53405e-20
1.66073e-20
2.09738e-21
8.46783e-21
1.10112e-21
6.48792e-23
1.98204e-21
2.0364e-21
2.78601e-21
1.9605e-20
4.82326e-21
1.6753e-20
3.77141e-20
4.89298e-20
2.89241e-20
5.26455e-21
1.72859e-20
3.38104e-20
1.61147e-20
3.71429e-21
4.30315e-22
1.9993e-20
5.33898e-20
9.40942e-22
3.94784e-20
8.17576e-21
1.25026e-20
1.71303e-21
3.75052e-21
4.50523e-20
2.36072e-20
3.29144e-20
2.55011e-20
1.34974e-20
1.88255e-22
1.6907e-20
5.0017e-21
9.30341e-21
7.62345e-21
1.31019e-20
1.59551e-20
1.40071e-20
1.18689e-20
5.80596e-21
3.80695e-20
1.66589e-21
2.15626e-20
8.00205e-21
1.68408e-20
2.79178e-21
5.73715e-21
1.11024e-20
4.13085e-21
9.69418e-21
9.85173e-21
1.5874e-20
2.64064e-21
3.17197e-20
7.21238e-21
1.87174e-21
3.28024e-20
2.80133e-20
1.4823e-20
7.02695e-21
3.41681e-20
3.23921e-21
2.82231e-20
1.04584e-20
1.5264e-20
7.62376e-21
1.54552e-20
1.78693e-20
6.11905e-22
3.8394e-21
2.24743e-21
1.4241e-21
4.87008e-21
5.92256e-22
3.57713e-21
5.8163e-22
6.80455e-21
3.82409e-21
1.46638e-20
3.24563e-22
1.1408e-20
1.95704e-20
3.36462e-20
1.33081e-20
7.50676e-22
2.717e-20
9.86733e-21
8.01993e-21
4.18809e-20
2.38508e-21
6.86086e-21
3.26865e-21
7.99749e-22
2.8415e-20
7.65364e-21
8.88711e-22
1.71855e-20
3.78371e-21
4.66522e-21
6.59439e-22
1.6115e-20
3.66484e-21
3.95847e-22
3.42833e-21
1.8229e-21
1.81911e-20
3.80328e-20
1.32268e-21
3.76436e-21
1.48537e-20
2.55295e-21
5.37293e-21
1.02365e-20
2.45739e-20
8.50165e-21
1.14138e-20
1.47239e-20
2.67753e-23
1.74919e-21
6.54928e-21
1.65019e-21
1.05406e-20
2.48017e-20
8.07694e-21
1.24207e-20
8.29346e-23
1.77035e-20
2.10264e-20
1.71311e-20
4.72877e-20
4.56653e-21
2.55593e-21
1.36188e-21
2.26184e-20
1.90226e-20
9.47034e-21
6.37484e-21
1.34368e-20
3.48625e-21
1.06968e-20
1.89229e-21
9.80889e-22
7.61668e-21
3.92639e-20
3.33619e-21
1.47346e-20
8.50452e-22
5.38369e-20
3.53717e-20
1.79154e-20
4.01869e-20
6.57274e-21
2.02788e-20
2.06241e-20
3.75662e-20
4.58501e-22
5.8418e-21
3.66627e-22
1.08084e-20
4.61194e-20
1.37726e-20
1.03104e-21
4.70557e-21
1.9019e-20
6.79228e-21
3.47309e-20
5.70835e-21
7.1788e-21
2.26212e-20
1.67682e-20
5.88111e-21
1.00381e-21
3.97057e-21
2.64011e-20
5.27296e-21
2.12225e-20
3.75101e-21
5.39726e-21
4.5193e-21
6.16489e-21
2.95921e-20
1.0147e-20
1.00076e-20
3.86128e-20
2.5784e-20
1.04786e-20
1.63199e-20
3.62744e-21
6.41774e-20
1.5343e-21
6.32008e-21
3.91351e-22
2.07542e-20
3.29179e-20
1.12632e-20
2.16134e-20
1.36048e-21
3.42664e-20
3.13417e-22
2.61191e-21
6.02904e-21
3.41501e-20
2.67845e-20
1.92039e-20
1.46702e-21
1.26759e-20
1.47091e-21
1.93889e-21
1.17416e-20
8.02832e-21
7.33097e-21
1.14929e-20
5.2934e-21
4.69997e-20
2.72539e-21
3.73157e-21
2.27552e-20
1.61067e-20
1.13627e-21
9.36081e-21
1.94699e-20
8.85282e-21
9.06305e-20
6.52644e-21
7.87559e-21
1.12223e-20
1.13925e-21
1.14231e-21
1.83046e-20
1.29566e-21
1.08206e-20
6.62969e-21
5.63085e-20
3.07065e-21
1.7225e-21
6.08172e-21
2.5522e-20
1.01894e-20
3.87043e-21
2.41964e-21
9.94656e-22
1.19904e-20
7.19808e-21
1.99832e-20
2.67845e-21
2.68303e-20
2.02825e-20
1.92534e-20
1.84491e-20
1.67348e-20
1.27016e-20
4.98525e-21
2.6444e-20
1.7952e-20
8.02167e-21
4.89777e-20
4.39339e-22
3.64464e-21
2.1476e-20
1.37288e-20
6.16224e-21
7.35681e-22
2.53524e-20
2.83451e-22
4.11031e-22
8.5811e-21
1.51139e-20
1.19007e-20
2.69571e-21
1.42276e-22
1.19885e-21
1.45308e-20
5.18661e-21
1.51825e-20
2.20231e-20
1.20064e-20
8.50867e-22
4.03045e-21
7.19329e-21
2.03781e-21
6.1524e-21
1.76076e-21
8.35369e-21
1.22172e-20
5.54637e-20
2.41334e-20
7.90932e-21
2.20732e-20
1.89394e-21
5.8262e-21
6.16366e-21
2.56489e-20
4.80727e-22
1.27793e-20
8.2892e-21
1.20612e-20
7.91262e-21
4.49643e-21
9.41428e-22
1.98702e-20
1.41589e-20
7.83498e-22
2.47127e-20
3.23214e-20
3.97614e-21
2.61668e-20
3.8613e-21
9.66503e-21
2.47478e-20
4.81909e-21
5.40482e-21
3.63433e-22
4.83904e-21
8.61162e-21
3.31199e-20
8.36514e-21
2.95208e-21
6.50252e-21
2.4745e-20
1.11311e-21
6.35557e-22
2.29166e-22
4.69993e-21
5.00982e-21
1.08921e-20
3.04458e-20
4.01925e-20
1.14753e-20
9.87605e-21
2.08305e-20
1.77421e-20
8.12119e-21
3.16514e-21
7.52317e-21
1.51217e-21
3.00832e-22
3.03341e-20
7.01186e-21
1.99227e-20
6.16179e-21
1.05629e-21
6.0492e-21
7.92338e-21
1.38336e-20
3.41581e-21
6.76647e-20
5.13133e-21
2.01052e-20
1.42879e-20
4.91174e-20
9.72621e-21
3.54928e-21
2.12022e-20
3.01994e-20
1.23575e-20
1.34784e-20
4.55922e-21
9.60176e-21
3.28259e-20
4.59108e-21
8.70989e-21
2.71753e-21
5.48037e-22
1.06073e-20
2.53619e-21
2.21178e-20
1.12897e-20
1.03069e-21
5.88505e-21
2.81354e-20
1.4138e-22
4.2541e-22
7.9952e-22
8.31261e-21
2.30553e-20
9.6627e-21
4.65072e-21
3.48857e-21
1.35869e-21
8.60906e-21
1.69093e-20
1.46222e-20
8.94022e-21
5.37405e-22
4.74727e-21
1.43584e-20
1.18965e-20
2.42888e-20
3.32812e-21
4.72134e-21
7.92329e-21
1.79858e-20
4.06595e-21
1.78669e-20
2.84645e-20
8.65835e-22
2.37002e-20
8.61729e-21
5.23034e-21
7.65698e-22
2.57711e-20
1.17454e-20
5.55584e-21
1.44107e-21
5.28006e-20
2.81588e-20
7.94363e-21
2.7222e-20
1.56752e-20
4.38756e-21
1.16891e-21
1.23835e-20
3.48568e-21
7.14796e-21
1.32416e-21
4.37415e-20
1.57332e-20
2.27561e-21
4.19685e-20
1.58946e-21
4.6338e-21
1.69626e-20
2.40618e-20
1.57517e-20
1.53246e-20
1.28887e-20
3.22089e-20
9.22023e-22
1.55946e-20
2.67599e-21
1.08916e-20
5.02419e-21
2.45523e-21
4.11989e-21
6.09855e-21
1.79903e-20
2.33704e-20
9.10654e-21
5.14285e-21
7.31038e-21
1.08552e-21
1.24637e-20
1.64014e-21
1.67568e-20
1.80669e-20
3.1608e-20
1.85656e-20
8.0884e-21
1.70601e-20
1.02222e-21
7.69629e-21
5.12256e-22
9.90748e-22
1.29185e-20
1.50919e-20
2.09196e-21
1.78205e-20
4.76564e-21
3.82073e-21
3.22352e-20
1.20363e-20
3.6854e-21
4.00935e-21
3.29926e-20
1.45296e-20
2.3412e-20
3.97548e-20
2.84805e-21
6.70956e-21
1.01138e-20
2.89455e-20
6.30184e-21
6.30344e-21
1.46693e-20
3.23891e-22
1.07554e-21
7.51217e-21
9.87546e-21
9.89903e-21
5.70599e-21
1.63413e-20
9.1709e-22
1.93757e-21
3.508e-21
7.32292e-21
9.32035e-21
4.10213e-20
6.40726e-21
4.60413e-21
3.31809e-21
1.65314e-21
1.35302e-21
5.15066e-21
1.28034e-21
2.25014e-20
2.00993e-20
9.19015e-21
1.92992e-21
1.09638e-20
4.43562e-20
5.27376e-20
6.29699e-21
6.99019e-21
5.2853e-21
3.7818e-21
4.44162e-21
1.73483e-21
1.31008e-20
8.48158e-21
4.08042e-21
1.82855e-20
8.17452e-21
2.89663e-20
7.83236e-21
3.50473e-21
1.99283e-20
3.42756e-20
7.64749e-21
9.99454e-22
1.88334e-20
1.03011e-20
7.27356e-21
1.30841e-20
7.41391e-21
3.19722e-20
2.65354e-21
9.66399e-21
7.87977e-22
1.72742e-20
1.2289e-20
2.00245e-20
5.44615e-21
3.38631e-20
2.61652e-20
2.05519e-20
4.48121e-21
1.80064e-20
3.53003e-21
7.69851e-21
1.90739e-20
6.7932e-21
1.53736e-20
1.79646e-20
3.70857e-20
2.33439e-20
1.97181e-20
1.18825e-20
7.77654e-22
1.46415e-21
3.92704e-21
1.58311e-20
4.75326e-21
2.20049e-21
4.23811e-20
1.06482e-20
5.62599e-22
5.8787e-22
1.9278e-21
2.45486e-20
3.07939e-21
1.20823e-20
6.41148e-21
2.7279e-21
5.61063e-21
5.22285e-21
1.47538e-20
1.86864e-20
2.15356e-20
3.3503e-20
1.02765e-19
1.31536e-21
1.65871e-20
2.48794e-20
2.87679e-21
2.25862e-20
9.5437e-21
1.59741e-21
9.17876e-21
8.39142e-22
8.30954e-21
1.40015e-20
1.13111e-20
2.78447e-20
3.08504e-21
8.14549e-21
2.74865e-20
3.28002e-21
9.54075e-21
1.28701e-20
2.69582e-21
3.4719e-21
2.93418e-21
2.1021e-20
3.13562e-21
4.60189e-20
1.10369e-20
2.58469e-20
1.51008e-20
4.56479e-21
9.75763e-21
3.74082e-21
1.12804e-20
6.05715e-20
1.23453e-21
2.03603e-21
5.52507e-21
1.32841e-20
3.84072e-20
2.23604e-22
1.26791e-20
2.82875e-22
1.21342e-20
1.72485e-20
1.04416e-20
2.86595e-20
5.90677e-21
2.04462e-21
9.05035e-21
1.65654e-20
1.57452e-20
1.5467e-21
2.48388e-20
1.3082e-20
4.53974e-21
7.96737e-21
2.17233e-20
2.40483e-20
1.54491e-20
1.36082e-20
1.39103e-21
9.07552e-21
5.89421e-21
2.18527e-21
2.11422e-20
8.57848e-21
1.323e-20
8.90628e-21
8.99579e-21
3.34583e-20
1.58775e-20
1.26927e-21
2.91077e-20
6.43498e-21
3.52212e-21
1.19756e-20
8.18551e-21
4.4674e-21
3.35988e-21
1.01882e-20
2.48545e-20
7.81229e-21
2.26302e-20
1.56428e-21
4.5966e-21
7.97061e-22
6.15871e-21
1.48412e-20
5.96639e-21
1.89687e-21
1.66663e-20
3.96924e-20
2.44937e-20
6.94925e-21
1.31316e-20
5.44264e-20
1.5964e-21
5.48012e-20
4.35518e-20
1.78155e-20
1.15246e-20
7.97978e-21
2.00367e-20
2.44706e-20
5.70149e-21
1.91902e-20
1.55115e-21
1.65225e-21
2.67059e-21
5.39417e-21
2.34753e-21
6.26843e-21
1.07414e-20
1.92947e-21
5.56777e-22
3.23624e-21
9.01044e-21
2.33661e-20
2.7052e-20
9.67789e-21
1.38669e-20
8.36816e-21
2.52219e-20
2.38935e-20
8.71795e-22
7.79478e-21
6.08025e-21
3.14049e-21
4.10926e-22
5.27033e-21
2.40109e-20
1.47263e-20
8.50031e-21
6.26047e-21
1.38984e-20
2.22933e-20
4.80632e-22
9.16211e-21
3.59289e-22
7.28036e-21
4.31942e-22
2.29498e-21
1.47398e-20
9.71404e-21
1.46819e-20
1.47914e-21
8.5194e-20
1.49707e-21
4.36295e-21
1.94116e-20
3.2379e-20
1.40881e-20
2.14418e-21
5.56095e-21
2.30039e-20
1.88136e-21
1.04988e-20
1.90379e-21
2.44187e-21
2.40454e-20
7.96334e-21
1.68223e-20
1.47345e-20
1.98751e-20
5.29235e-22
7.64837e-20
9.35612e-21
1.14193e-20
6.71834e-21
6.47318e-21
1.4004e-21
1.67865e-20
7.09706e-22
1.22249e-20
3.1663e-20
5.73351e-21
3.26178e-21
3.02902e-21
6.89604e-21
3.28302e-21
8.90565e-23
2.58536e-20
3.01412e-20
6.68107e-21
3.80267e-21
2.60008e-20
6.68519e-23
1.13354e-20
9.77268e-21
2.30944e-20
1.48553e-20
8.85683e-21
2.15735e-20
1.63468e-20
1.81023e-21
2.82168e-20
1.21647e-21
2.44757e-20
7.25277e-21
1.55796e-22
5.29275e-21
2.77508e-21
1.743e-20
9.10188e-21
5.43138e-21
1.25055e-22
9.55014e-21
1.30523e-20
9.5701e-21
1.65135e-21
2.546e-21
2.0991e-20
2.06069e-20
2.99098e-20
6.91483e-21
1.74412e-20
2.82635e-20
3.76766e-20
7.55334e-21
4.10658e-21
2.10189e-20
6.84695e-21
2.03205e-20
1.34721e-20
5.03899e-21
6.39392e-21
3.49928e-21
2.73763e-21
1.33244e-20
2.71178e-21
1.52078e-20
3.16747e-21
1.20892e-20
1.62783e-20
1.12323e-20
1.04253e-20
1.06547e-20
1.97571e-20
3.37259e-22
2.57634e-20
3.08758e-20
2.18407e-21
2.10548e-20
9.15816e-21
1.16304e-20
6.83807e-21
2.00806e-20
1.4812e-20
6.56239e-20
1.39775e-21
1.83881e-20
2.31927e-20
1.60793e-20
6.15766e-21
7.28856e-21
1.44067e-20
2.53759e-20
2.52737e-20
3.49069e-20
1.73892e-21
1.15055e-20
8.30202e-22
2.08324e-22
6.88286e-22
3.34715e-20
1.54774e-20
6.48425e-21
5.59866e-21
4.56022e-20
5.40686e-22
4.12664e-21
1.27935e-22
7.89843e-21
7.98453e-21
3.46152e-20
1.16628e-20
5.10446e-21
1.57871e-21
2.35317e-20
2.4034e-21
1.92115e-20
6.50264e-21
1.10766e-20
2.02789e-21
1.18255e-20
4.45517e-21
2.37613e-20
3.73242e-21
3.80265e-20
6.98122e-22
8.14485e-21
1.29546e-20
1.36028e-20
1.13141e-20
1.09644e-21
3.26499e-21
4.42634e-20
4.82792e-22
3.34999e-22
4.37798e-21
1.3883e-20
4.48095e-20
2.58568e-21
1.3234e-20
4.56264e-22
1.3217e-20
1.74721e-20
5.01132e-22
9.68897e-21
5.94698e-21
1.49224e-20
7.70017e-22
4.96336e-22
1.59357e-20
4.48651e-23
1.3732e-20
2.54406e-20
1.98303e-20
5.3473e-21
1.52031e-21
1.29095e-20
1.82995e-21
4.73303e-20
6.12208e-21
1.21366e-20
5.81766e-21
9.56082e-21
1.45777e-21
1.03219e-20
1.69539e-20
3.19569e-20
2.48679e-21
5.397e-21
1.85471e-20
1.79231e-21
6.18738e-21
9.96938e-23
1.85161e-20
4.40985e-23
4.58338e-22
5.08847e-21
3.29397e-20
8.84907e-21
2.96591e-21
1.52675e-20
8.01037e-21
7.86892e-24
6.86606e-21
2.598e-21
8.67488e-21
4.96203e-20
2.11022e-20
2.75748e-21
1.36297e-21
1.44049e-21
3.56088e-21
5.92731e-21
2.52132e-20
1.99995e-21
4.74697e-21
7.95885e-21
9.6836e-21
8.79178e-21
5.82314e-21
9.73448e-21
6.48499e-21
1.08498e-20
3.83034e-21
2.07153e-21
6.3725e-21
1.69422e-20
2.07213e-20
1.32678e-20
3.22721e-21
2.20195e-21
6.447e-21
9.12e-21
1.83124e-21
1.24999e-20
1.20001e-20
2.78291e-20
3.98915e-20
1.75123e-21
7.39345e-21
4.58269e-22
1.16639e-20
4.654e-21
6.5484e-21
4.96189e-21
2.62953e-20
1.17739e-20
1.51913e-20
2.6924e-20
1.61952e-20
1.31447e-22
5.3765e-21
2.72444e-21
1.7387e-20
1.89813e-20
1.68173e-20
2.0526e-20
1.27888e-20
3.32521e-20
4.50154e-22
9.81105e-22
7.65357e-21
4.05212e-21
5.6327e-21
2.40811e-22
1.33069e-20
3.48076e-21
3.19126e-22
1.44742e-20
1.23954e-20
4.45362e-20
2.31951e-20
9.31856e-21
4.59546e-20
8.75261e-21
9.48286e-21
6.61387e-21
1.10634e-21
2.02974e-21
5.3561e-21
2.72801e-20
7.49682e-21
6.18814e-21
2.49121e-20
1.72855e-20
4.05165e-21
1.87461e-20
1.55695e-20
2.13701e-20
1.79196e-20
6.97734e-21
9.11851e-21
3.21054e-22
8.29938e-21
8.68725e-21
2.41519e-20
2.54344e-20
6.58048e-22
7.47303e-21
2.20012e-20
1.80278e-21
5.1481e-21
6.67275e-21
1.58848e-20
1.49394e-20
2.65033e-21
1.50487e-20
1.2626e-21
6.91119e-21
9.18261e-21
5.00848e-21
1.75057e-21
2.87422e-20
2.142e-20
4.13277e-20
3.34698e-20
3.40158e-22
1.86815e-21
1.11659e-20
1.4899e-20
1.21377e-21
1.19613e-21
1.37749e-20
5.80602e-20
4.9659e-21
3.08205e-20
3.27258e-22
1.31223e-20
4.23811e-20
8.69152e-22
7.32267e-20
3.55228e-21
2.25102e-20
7.51111e-21
3.37064e-22
7.65186e-21
5.10412e-21
5.53397e-21
1.4484e-20
4.72966e-21
2.18459e-20
2.1908e-20
9.33437e-21
8.17618e-21
2.88617e-20
2.50178e-21
4.87179e-21
3.78089e-22
6.41045e-21
2.75772e-21
8.5136e-21
7.43976e-21
5.05329e-21
1.46743e-20
5.32897e-22
7.6051e-21
7.09628e-21
1.78699e-21
1.29035e-20
8.94682e-22
4.75927e-21
9.02607e-21
4.22752e-20
1.37441e-20
1.54049e-20
2.52298e-20
1.69475e-20
5.22325e-21
1.81133e-20
2.73321e-20
1.04416e-20
7.16887e-21
1.19799e-20
4.00834e-21
5.2583e-21
1.66216e-21
7.64941e-21
2.04491e-20
1.66174e-20
2.47407e-20
1.11776e-20
9.69276e-21
2.32448e-20
9.99962e-21
1.25864e-20
1.46167e-20
8.31362e-21
1.80422e-20
3.25411e-20
5.55069e-21
1.40722e-21
2.44873e-21
1.08418e-20
1.37747e-20
8.01381e-21
3.27275e-21
2.74988e-20
3.43158e-20
1.50645e-20
1.05247e-20
1.155e-20
4.81234e-21
6.19759e-21
7.57309e-21
7.83189e-20
3.95847e-21
1.24029e-20
5.40172e-21
6.25505e-21
1.89923e-20
6.35554e-22
3.49865e-21
3.32647e-21
4.73534e-21
4.23091e-21
1.54872e-20
1.88593e-20
2.71679e-20
3.28371e-20
2.21795e-20
1.1951e-21
8.35769e-21
1.4628e-20
4.90763e-21
2.43559e-21
8.7533e-22
1.09486e-21
2.44869e-20
6.46613e-21
1.31316e-21
1.98231e-20
2.43701e-20
1.418e-20
3.78416e-20
2.40025e-21
1.34197e-20
1.18354e-20
4.72583e-21
4.95125e-21
1.70816e-20
7.37702e-21
2.80993e-20
3.81156e-21
2.09295e-21
6.50168e-21
2.07126e-21
2.98702e-20
3.8591e-20
8.20918e-23
4.18124e-21
1.12832e-20
1.12709e-20
1.73392e-20
3.95753e-21
1.85238e-21
3.46868e-21
1.54206e-20
2.56996e-21
4.2929e-21
1.44911e-21
1.32884e-20
2.32505e-20
1.09319e-21
1.05043e-20
7.91633e-21
5.88133e-22
1.12023e-20
5.90943e-21
8.8224e-22
1.7017e-20
6.43004e-21
3.75916e-21
2.8223e-21
4.86332e-21
6.8839e-21
9.56072e-22
3.04143e-21
9.87771e-21
1.48238e-21
5.15186e-21
1.54352e-20
1.88554e-20
6.29456e-21
1.79956e-20
7.65312e-21
1.59495e-20
5.18337e-21
9.25514e-21
1.8616e-21
4.71214e-21
1.00998e-21
7.94507e-22
3.26524e-21
7.72246e-21
2.68274e-20
3.8721e-23
9.28919e-21
3.81275e-20
1.49638e-20
6.47338e-21
6.88992e-21
1.32545e-21
8.38124e-21
4.38222e-20
2.24515e-20
1.02572e-20
9.87737e-21
1.27372e-20
9.06158e-21
3.43889e-21
9.54244e-21
2.81885e-20
2.46724e-21
2.27529e-21
1.51272e-21
1.44585e-20
4.96306e-21
9.2437e-21
1.91888e-21
3.11176e-22
3.54481e-21
4.23101e-21
3.0934e-20
3.19776e-20
2.56858e-20
3.0485e-20
2.01107e-20
6.07256e-21
1.21661e-20
4.26843e-21
2.70535e-20
1.10113e-20
1.72316e-20
5.77742e-21
3.48234e-21
2.47405e-21
9.72669e-21
1.63423e-20
4.05895e-21
2.86059e-20
9.40008e-21
3.01264e-20
4.39901e-20
4.82929e-21
4.86501e-20
4.52785e-21
4.2915e-21
2.00257e-20
1.41948e-21
2.39409e-20
3.37229e-21
8.54121e-21
7.96326e-21
5.04013e-21
2.03505e-21
6.48942e-21
1.70861e-21
2.61511e-21
8.42255e-21
3.1974e-21
1.47967e-20
8.81812e-21
4.13222e-20
1.56833e-20
2.07627e-21
3.70852e-20
2.44043e-21
1.0493e-20
2.24415e-20
2.44999e-20
1.60076e-20
1.53059e-20
2.83313e-21
1.75208e-20
8.43342e-21
4.25687e-21
3.4681e-21
7.85958e-21
2.14797e-21
4.01882e-21
1.34617e-20
1.38943e-20
4.78822e-21
1.43502e-20
1.11752e-20
8.28586e-22
9.47125e-21
6.53148e-21
1.66355e-21
1.57853e-20
4.24915e-20
2.97262e-20
6.52997e-21
4.86808e-21
3.07864e-21
1.15917e-20
1.58154e-20
3.11127e-20
3.59123e-20
3.09628e-22
3.16937e-21
6.38818e-22
1.06492e-20
4.42787e-20
1.41427e-20
8.13308e-22
2.90984e-21
3.52324e-20
5.38499e-22
1.881e-20
2.10145e-20
1.3635e-22
9.95142e-21
2.67055e-21
1.9293e-20
2.72094e-20
8.92592e-22
1.90002e-20
1.15506e-21
1.32414e-20
2.51264e-21
2.88172e-21
6.4425e-21
1.87754e-20
2.90548e-20
2.22165e-20
1.77578e-20
2.3699e-20
1.28254e-20
4.89846e-20
8.5608e-21
2.0508e-21
3.87058e-21
2.63661e-20
6.81757e-21
3.69232e-20
5.79027e-21
4.49189e-20
7.93313e-21
1.95058e-20
2.83777e-21
3.52024e-20
2.253e-21
5.01706e-21
1.41173e-20
6.28801e-21
1.13725e-20
3.14409e-20
6.54465e-21
3.29151e-20
6.45291e-21
6.50129e-21
2.08822e-21
2.35719e-20
6.83556e-21
4.23175e-21
8.59617e-21
3.94509e-21
3.0766e-21
1.96523e-20
7.84256e-21
1.63568e-20
1.69481e-20
5.70131e-21
1.15893e-22
1.67057e-20
4.33213e-21
8.52936e-21
3.2379e-21
3.85572e-21
1.54138e-20
5.74082e-21
1.17509e-20
4.07732e-21
4.72441e-21
2.08958e-20
3.7831e-20
2.03068e-20
1.14256e-20
2.53289e-20
8.76099e-21
2.47477e-21
9.69128e-21
1.36467e-21
1.46426e-20
5.73818e-21
1.25147e-21
5.41235e-21
1.10186e-20
1.33176e-21
2.62529e-20
9.56739e-21
9.02647e-21
3.88803e-21
2.63823e-21
3.08605e-20
7.18419e-21
6.38004e-21
6.57898e-21
1.38071e-20
1.26649e-20
6.24251e-21
1.87145e-21
7.98143e-21
3.15126e-20
6.2987e-21
7.85822e-21
4.3616e-21
4.29637e-21
8.69046e-21
6.05366e-21
3.17007e-21
6.91958e-21
2.05831e-21
1.8447e-20
4.25899e-21
6.17012e-21
2.94608e-21
1.20217e-20
6.73044e-21
4.27093e-20
2.05282e-23
1.49237e-20
3.92607e-21
6.97748e-21
1.32801e-21
1.84857e-21
7.0192e-21
1.07472e-20
9.81538e-21
8.94679e-21
1.5027e-20
2.18396e-20
3.02191e-21
2.38248e-21
2.07208e-20
9.68181e-21
7.12355e-22
7.1758e-21
1.98814e-20
2.46393e-20
1.50541e-20
1.74257e-20
1.88641e-20
2.838e-20
3.6392e-20
2.88685e-20
7.2919e-24
2.56217e-21
8.55979e-22
1.02663e-20
4.25787e-21
1.66728e-21
6.1021e-21
1.71579e-21
4.78692e-20
3.53919e-21
1.32398e-21
1.75648e-21
2.6567e-20
2.21176e-20
1.84052e-20
8.26658e-21
1.35979e-20
2.76556e-20
2.04113e-20
4.19747e-20
4.53428e-21
8.61528e-21
5.37185e-20
5.63204e-21
6.67278e-22
1.23336e-20
2.11958e-20
8.17744e-21
8.27639e-22
2.53279e-20
4.61224e-21
1.75502e-20
1.42174e-20
3.3363e-23
1.86806e-20
8.86554e-21
2.10327e-21
1.26917e-20
2.66428e-20
5.00391e-22
1.80188e-20
4.31644e-21
5.68833e-20
7.24459e-21
1.98971e-20
2.04373e-21
4.08885e-23
8.49647e-21
1.9647e-20
2.03421e-21
3.38909e-20
5.91229e-21
2.51568e-21
4.99238e-21
2.07807e-21
5.6491e-21
3.40782e-21
1.31111e-20
7.47767e-21
1.87217e-20
5.15252e-21
5.62218e-21
2.68114e-21
3.0609e-21
1.29537e-20
5.65972e-21
2.33452e-20
8.6943e-21
8.95738e-21
1.08231e-20
4.00108e-21
2.10216e-20
5.92021e-21
7.77178e-21
2.4424e-20
1.2862e-20
1.06446e-20
1.9315e-20
4.77403e-20
1.65428e-21
2.40997e-21
3.00847e-20
2.05572e-20
4.47309e-21
3.50687e-21
1.57314e-20
5.43819e-21
1.11803e-20
4.33413e-21
1.92828e-21
3.32141e-22
4.99956e-21
1.64524e-20
1.70721e-21
4.36947e-21
1.19103e-20
9.04977e-22
8.2533e-22
2.51951e-21
1.36777e-20
3.43045e-20
4.77441e-21
5.32979e-21
4.25513e-21
3.50427e-20
4.24271e-20
2.16049e-20
1.18913e-21
2.33191e-20
9.98724e-21
4.45604e-21
1.76348e-20
4.23063e-21
2.0729e-21
1.91538e-21
2.23581e-20
9.1143e-21
2.34436e-20
1.10693e-20
2.0602e-20
1.63763e-21
5.00775e-21
9.73913e-21
2.19301e-20
2.16599e-20
1.06772e-20
5.13338e-22
1.55763e-20
1.12817e-20
6.13659e-21
3.68558e-21
1.42563e-21
2.9963e-22
1.21076e-20
1.37333e-20
5.21639e-21
1.49336e-20
9.23415e-21
3.50435e-21
9.70421e-22
7.0041e-21
1.56617e-20
9.97945e-21
1.42534e-20
1.36974e-20
4.18855e-20
4.09557e-20
1.63139e-20
2.14892e-21
1.3986e-20
3.1961e-20
6.57688e-20
1.72902e-20
2.17584e-20
1.57303e-20
6.06234e-21
2.43473e-20
7.17252e-22
2.88532e-21
4.94716e-21
4.08877e-20
4.34989e-21
7.39496e-21
1.0665e-20
9.00429e-21
9.12167e-21
7.43919e-21
2.46758e-21
1.72139e-20
4.34859e-20
3.5865e-20
1.18634e-20
8.90637e-21
5.44416e-22
5.68859e-21
4.21541e-20
7.31636e-21
3.01066e-20
4.32885e-21
3.74719e-21
1.64713e-20
1.49028e-20
3.37718e-21
1.02415e-20
8.03061e-21
1.1524e-20
2.01806e-20
8.66894e-21
1.00282e-20
1.62035e-21
2.86523e-22
6.82071e-21
3.69125e-20
1.45374e-20
2.23781e-21
2.38444e-20
1.90589e-20
4.26465e-21
2.96495e-20
6.45035e-21
1.35004e-20
2.00691e-20
1.55683e-20
1.35051e-20
1.7439e-21
1.49357e-20
2.06218e-20
4.71004e-23
6.74564e-21
5.03307e-21
7.18269e-21
3.24124e-21
9.14183e-21
5.37939e-20
8.66838e-21
3.35535e-21
1.43862e-21
6.48085e-21
1.07516e-20
1.6162e-21
4.31967e-20
1.28714e-20
2.2176e-20
1.44153e-20
2.23382e-20
1.37508e-20
7.77023e-22
1.79907e-20
2.77166e-21
2.84152e-21
4.14499e-21
1.53765e-21
2.57514e-20
2.23944e-20
1.76271e-20
1.78604e-21
5.89375e-21
1.38377e-21
6.6725e-21
7.3771e-21
7.79957e-21
1.25351e-20
1.56512e-20
7.49804e-21
1.35225e-20
6.06634e-21