/*--------------------------------*- C++ -*----------------------------------*\
  =========                 |
  \\      /  F ield         | OpenFOAM: The Open Source CFD Toolbox
   \\    /   O peration     | Website:  https://openfoam.org
    \\  /    A nd           | Version:  7
     \\/     M anipulation  |
\*---------------------------------------------------------------------------*/
FoamFile
{
    version     2.0;
    format      ascii;
    class       Cloud<passiveParticle>;
    location    "0/lagrangian/dsmc";
    object      positions;
}
// * * * * * * * * * * * * * * * * * * * * * * * * * * * * * * * * * * * * * //

31788
(
(0.587602 0.00187367 0.00308213 0.407442) 0 0 1
(0.0130054 0.741215 0.181201 0.0645781) 0 0 1
(0.517691 0.0135866 0.368422 0.100301) 0 0 1
(0.207334 0.32399 0.380479 0.0881974) 0 0 1
(0.555234 0.192796 0.235005 0.0169647) 0 0 1
(0.104557 0.398833 0.157816 0.338794) 0 0 1
(0.434803 0.0589655 0.148572 0.35766) 0 0 1
(0.27169 0.0224478 0.331302 0.374561) 0 0 1
(0.506609 0.288148 0.147029 0.058215) 0 0 1
(0.630656 0.143746 0.0343474 0.191251) 0 0 1
(0.168552 0.147541 0.051007 0.632899) 0 0 1
(0.226887 0.6847 0.0105197 0.0778931) 0 0 1
(0.0913794 0.658435 0.0426098 0.207576) 0 0 1
(0.543194 0.118279 0.211103 0.127425) 0 0 1
(0.0754153 0.364158 0.311485 0.248941) 0 0 1
(0.0969626 0.53393 0.0032658 0.365842) 0 0 1
(0.0216088 0.294019 0.123304 0.561068) 0 0 1
(0.212735 0.0308277 0.389713 0.366725) 0 0 1
(0.263087 0.052881 0.400381 0.283651) 0 0 1
(0.117732 0.235062 0.444875 0.202331) 0 0 1
(0.482826 0.0950347 0.138716 0.283423) 0 0 1
(0.298767 0.21812 0.207738 0.275375) 0 0 2
(0.254911 0.479705 0.206584 0.0588002) 0 0 2
(0.194042 0.0412402 0.62419 0.140528) 0 0 2
(0.678549 0.135978 0.146085 0.039388) 0 0 2
(0.135469 0.4707 0.00167277 0.392158) 0 0 2
(0.445128 0.361222 0.0333615 0.160289) 0 0 2
(0.155701 0.348553 0.199339 0.296407) 0 0 2
(0.163993 0.0267602 0.721175 0.0880718) 0 0 2
(0.308107 0.181044 0.093033 0.417816) 0 0 2
(0.385057 0.236686 0.223133 0.155124) 0 0 2
(0.198773 0.521624 0.166887 0.112716) 0 0 2
(0.095382 0.546718 0.0768091 0.28109) 0 0 2
(0.138494 0.0687831 0.0123241 0.780399) 0 0 2
(0.188222 0.719299 0.0491429 0.0433361) 0 0 2
(0.526391 0.217979 0.128815 0.126815) 0 0 2
(0.226193 0.126747 0.155015 0.492046) 0 0 2
(0.117256 0.270216 0.213321 0.399207) 0 0 2
(0.104109 0.0851358 0.495589 0.315166) 0 0 2
(0.0569949 0.0107464 0.432749 0.499509) 0 0 2
(0.208893 0.151862 0.0295447 0.6097) 0 0 2
(0.471886 0.00414665 0.330601 0.193366) 0 0 2
(0.131679 0.171534 0.246028 0.450758) 0 124 1
(0.296522 0.327612 0.0874365 0.288429) 0 124 1
(0.193305 0.645062 0.0396647 0.121968) 0 124 1
(0.551968 0.0726833 0.022285 0.353064) 0 124 1
(0.23857 0.334075 0.00689745 0.420457) 0 124 1
(0.0405144 0.149016 0.620686 0.189783) 0 124 1
(0.216196 0.27882 0.238115 0.266869) 0 124 1
(0.441112 0.229629 0.0105708 0.318689) 0 124 1
(0.163755 0.196319 0.132538 0.507389) 0 124 1
(0.0570965 0.230915 0.0319692 0.68002) 0 124 1
(0.0378222 0.433217 0.505257 0.0237031) 0 124 1
(0.0464435 0.234764 0.0169274 0.701865) 0 124 1
(0.588647 0.02622 0.374218 0.0109153) 0 124 1
(0.176374 0.139287 0.330384 0.353955) 0 124 1
(0.118997 0.480375 0.215347 0.185281) 0 124 1
(0.320679 0.118446 0.315458 0.245417) 0 124 1
(0.116711 0.499393 0.23066 0.153236) 0 124 1
(0.0901086 0.147978 0.255012 0.506902) 0 124 1
(0.0700498 0.0859655 0.383234 0.460751) 0 124 1
(0.00890197 0.613234 0.239796 0.138068) 0 124 1
(0.657185 0.0555017 0.251009 0.0363048) 0 124 1
(0.267823 0.0287123 0.656799 0.0466652) 0 124 2
(0.0860538 0.0810652 0.663928 0.168953) 0 124 2
(0.0539255 0.388215 0.0297608 0.528099) 0 124 2
(0.477793 0.0605656 0.124174 0.337468) 0 124 2
(0.277787 0.481993 0.191706 0.0485149) 0 124 2
(0.321796 0.110621 0.120896 0.446687) 0 124 2
(0.500646 0.0635486 0.182583 0.253223) 0 124 2
(0.0523924 0.377135 0.223132 0.347341) 0 124 2
(0.387865 0.204344 0.293944 0.113846) 0 124 2
(0.145116 0.173748 0.317902 0.363234) 0 124 2
(0.0625011 0.0893866 0.197084 0.651028) 0 124 2
(0.204618 0.217887 0.562475 0.0150201) 0 124 2
(0.0211558 0.101591 0.706959 0.170295) 0 124 2
(0.166917 0.130463 0.272695 0.429924) 0 124 2
(0.00711996 0.500569 0.0341232 0.458188) 0 124 2
(0.0570515 0.671934 0.222901 0.0481134) 0 124 2
(0.250835 0.125082 0.438142 0.18594) 0 124 2
(0.126039 0.384134 0.340011 0.149816) 0 124 2
(0.316307 0.182879 0.319712 0.181103) 0 124 2
(0.169109 0.0330431 0.772771 0.0250766) 0 124 2
(0.840703 0.0430794 0.0520152 0.0642024) 0 124 2
(0.197353 0.721589 0.0402913 0.0407668) 0 249 1
(0.212992 0.192672 0.0912854 0.503051) 0 249 1
(0.318465 0.0191536 0.281136 0.381246) 0 249 1
(0.285082 0.1854 0.339094 0.190424) 0 249 1
(0.566924 0.0462263 0.103422 0.283428) 0 249 1
(0.53813 0.258814 0.115072 0.0879843) 0 249 1
(0.105423 0.202252 0.0674313 0.624894) 0 249 1
(0.422006 0.0402847 0.20148 0.336228) 0 249 1
(0.318475 0.0158049 0.660255 0.00546515) 0 249 1
(0.303315 0.332496 0.0694672 0.294722) 0 249 1
(0.00192007 0.355713 0.18535 0.457017) 0 249 1
(0.0959605 0.0454413 0.199113 0.659486) 0 249 1
(0.360159 0.41505 0.198373 0.0264171) 0 249 1
(0.0837486 0.182986 0.228342 0.504924) 0 249 1
(0.353653 0.135053 0.0886481 0.422646) 0 249 1
(0.245644 0.591736 0.153363 0.00925584) 0 249 1
(0.32314 0.437418 0.18032 0.059122) 0 249 1
(0.644831 0.167005 0.0932495 0.094914) 0 249 1
(0.108088 0.262656 0.0926073 0.536649) 0 249 1
(0.208434 0.495393 0.224473 0.0717004) 0 249 1
(0.0717547 0.217939 0.513671 0.196635) 0 249 1
(0.379996 0.389154 0.0836688 0.147181) 0 249 2
(0.173004 0.0342485 0.328493 0.464255) 0 249 2
(0.320373 0.275274 0.341247 0.0631057) 0 249 2
(0.302228 0.00848603 0.617073 0.0722126) 0 249 2
(0.401933 0.306366 0.0946262 0.197074) 0 249 2
(0.0698754 0.0098657 0.417497 0.502762) 0 249 2
(0.107899 0.357878 0.406664 0.127559) 0 249 2
(0.222931 0.241278 0.0548085 0.480983) 0 249 2
(0.0704402 0.0621721 0.13028 0.737108) 0 249 2
(0.112646 0.561551 0.250849 0.0749538) 0 249 2
(0.233235 0.098326 0.628925 0.0395134) 0 249 2
(0.465128 0.0907593 0.0873841 0.356729) 0 249 2
(0.160367 0.160646 0.31675 0.362237) 0 249 2
(0.43921 0.161225 0.337511 0.0620535) 0 249 2
(0.149608 0.254901 0.00794332 0.587548) 0 249 2
(0.157569 0.154196 0.405273 0.282963) 0 249 2
(0.460764 0.0757791 0.0431989 0.420258) 0 249 2
(0.368595 0.348663 0.250678 0.0320641) 0 249 2
(0.360229 0.379981 0.174783 0.0850073) 0 249 2
(0.151498 0.284727 0.317722 0.246053) 0 249 2
(0.401531 0.0700573 0.00141699 0.526995) 0 249 2
(0.345965 0.0966538 0.288107 0.269274) 0 249 2
(0.00862599 0.459238 0.0665747 0.465561) 0 374 1
(0.207183 0.118389 0.324956 0.349471) 0 374 1
(0.0332818 0.441647 0.100174 0.424897) 0 374 1
(0.175093 0.0414628 0.107585 0.675859) 0 374 1
(0.136765 0.175294 0.17322 0.514721) 0 374 1
(0.400834 0.080585 0.31554 0.203041) 0 374 1
(0.132793 0.00309114 0.0761075 0.788008) 0 374 1
(0.125084 0.163094 0.631704 0.0801177) 0 374 1
(0.288328 0.119407 0.351615 0.24065) 0 374 1
(0.405182 0.180547 0.266911 0.14736) 0 374 1
(0.395122 0.17896 0.344125 0.0817931) 0 374 1
(0.023901 0.110851 0.20411 0.661138) 0 374 1
(0.0337529 0.600872 0.225058 0.140317) 0 374 1
(0.142378 0.38934 0.430095 0.0381872) 0 374 1
(0.054268 0.331083 0.0950487 0.5196) 0 374 1
(0.493812 0.189833 0.234458 0.0818977) 0 374 1
(0.340988 0.14139 0.28783 0.229792) 0 374 1
(0.205767 0.0372096 0.0698666 0.687156) 0 374 1
(0.27857 0.169534 0.0848656 0.46703) 0 374 1
(0.0191187 0.58925 0.0911973 0.300434) 0 374 1
(0.0642647 0.492936 0.28418 0.15862) 0 374 1
(0.859688 0.0755657 0.0377184 0.0270281) 0 374 2
(0.0259786 0.823762 0.141534 0.00872515) 0 374 2
(0.636675 0.017085 0.113594 0.232646) 0 374 2
(0.13471 0.118863 0.237674 0.508753) 0 374 2
(0.293365 0.292432 0.127801 0.286402) 0 374 2
(0.104645 0.241939 0.186891 0.466525) 0 374 2
(0.336427 0.153313 0.0691369 0.441123) 0 374 2
(0.00299686 0.268003 0.143159 0.585842) 0 374 2
(0.306193 0.0381153 0.283862 0.37183) 0 374 2
(0.117988 0.423605 0.399231 0.0591767) 0 374 2
(0.099687 0.00980365 0.441883 0.448627) 0 374 2
(0.0306463 0.889479 0.00080405 0.079071) 0 374 2
(0.626153 0.302937 0.0333047 0.0376051) 0 374 2
(0.100108 0.335439 0.326674 0.237778) 0 374 2
(0.7716 0.104413 0.0498662 0.0741202) 0 374 2
(0.113499 0.105255 0.419447 0.3618) 0 374 2
(0.382689 0.21059 0.249461 0.15726) 0 374 2
(0.141229 0.19299 0.262904 0.402878) 0 374 2
(0.106701 0.00940353 0.786009 0.0978859) 0 374 2
(0.421265 0.0735326 0.430028 0.0751747) 0 374 2
(0.197261 0.279653 0.330602 0.192483) 0 374 2
(0.171653 0.406943 0.0596209 0.361783) 0 374 2
(0.260303 0.222804 0.0983206 0.418572) 0 499 1
(0.339054 0.263727 0.233795 0.163424) 0 499 1
(0.600207 0.182532 0.06502 0.152241) 0 499 1
(0.367651 0.0888096 0.502396 0.0411433) 0 499 1
(0.176813 0.341076 0.28118 0.200931) 0 499 1
(0.240168 0.18809 0.548784 0.0229574) 0 499 1
(0.0460026 0.786422 0.163224 0.00435177) 0 499 1
(0.556874 0.09423 0.233654 0.115242) 0 499 1
(0.345214 0.00325012 0.649167 0.00236838) 0 499 1
(0.152566 0.0512287 0.449498 0.346708) 0 499 1
(0.292066 0.283593 0.361895 0.0624459) 0 499 1
(0.519797 0.0959223 0.162317 0.221963) 0 499 1
(0.0662015 0.131331 0.164983 0.637485) 0 499 1
(0.0363158 0.388826 0.161759 0.413099) 0 499 1
(0.103685 0.452015 0.0318467 0.412453) 0 499 1
(0.403289 0.467193 0.011855 0.117663) 0 499 1
(0.711072 0.0413697 0.185092 0.0624655) 0 499 1
(0.210718 0.00736644 0.00404346 0.777873) 0 499 1
(0.0575697 0.483688 0.227057 0.231685) 0 499 1
(0.162848 0.176182 0.469259 0.191711) 0 499 1
(0.00680373 0.550528 0.258078 0.18459) 0 499 1
(0.0251063 0.243606 0.223308 0.50798) 0 499 2
(0.0723985 0.20152 0.62099 0.105092) 0 499 2
(0.310259 0.00972502 0.48723 0.192787) 0 499 2
(0.804497 0.0418988 0.0981065 0.0554972) 0 499 2
(0.0939229 0.122416 0.645756 0.137905) 0 499 2
(0.249562 0.143675 0.31947 0.287293) 0 499 2
(0.71412 0.0153594 0.106269 0.164251) 0 499 2
(0.430645 0.410403 0.1282 0.0307513) 0 499 2
(0.473925 0.199212 0.0710389 0.255825) 0 499 2
(0.0854624 0.353135 0.477576 0.0838271) 0 499 2
(0.0690936 0.0979392 0.757366 0.0756015) 0 499 2
(0.109296 0.628449 0.112215 0.150039) 0 499 2
(0.106518 0.138035 0.405371 0.350076) 0 499 2
(0.135008 0.2126 0.296398 0.355993) 0 499 2
(0.81753 0.0315697 0.0122371 0.138663) 0 499 2
(0.628359 0.272372 0.0185409 0.0807281) 0 499 2
(0.346661 0.122687 0.168123 0.362529) 0 499 2
(0.050546 0.609951 0.0171816 0.322321) 0 499 2
(0.335082 0.161415 0.296687 0.206816) 0 499 2
(0.050299 0.625318 0.231587 0.0927964) 0 499 2
(0.0183861 0.675572 0.185895 0.120146) 0 499 2
(0.310213 0.184853 0.331014 0.17392) 0 624 2
(0.101292 0.338857 0.0891364 0.470714) 0 624 2
(0.467771 0.0353942 0.249025 0.247809) 0 624 2
(0.0704903 0.392738 0.141834 0.394938) 0 624 2
(0.381728 0.246462 0.192425 0.179385) 0 624 2
(0.126426 0.322751 0.365434 0.18539) 0 624 2
(0.143711 0.383613 0.090607 0.382069) 0 624 2
(0.442519 0.0338428 0.382732 0.140906) 0 624 2
(0.101459 0.506059 0.240514 0.151968) 0 624 2
(0.61173 0.195433 0.11704 0.075797) 0 624 2
(0.316029 0.598087 0.030043 0.0558415) 0 624 2
(0.594903 0.234232 0.15663 0.0142352) 0 624 2
(0.226468 0.3585 0.36245 0.0525821) 0 624 2
(0.130521 0.087054 0.734992 0.0474325) 0 624 2
(0.080873 0.484844 0.17509 0.259193) 0 624 2
(0.46817 0.139027 0.143912 0.248891) 0 624 2
(0.0691191 0.352197 0.534894 0.0437896) 0 624 2
(0.478365 0.182308 0.154202 0.185125) 0 624 2
(0.280548 0.170149 0.03483 0.514473) 0 624 2
(0.345754 0.00996724 0.176262 0.468016) 0 624 2
(0.362538 0.0873099 0.129964 0.420189) 0 624 2
(0.197172 0.0154094 0.174753 0.612666) 0 624 1
(0.397288 0.340894 0.079597 0.182221) 0 624 1
(0.156543 0.0798824 0.423855 0.33972) 0 624 1
(0.251542 0.0978718 0.417637 0.23295) 0 624 1
(0.186045 0.176124 0.199188 0.438643) 0 624 1
(0.212496 0.466745 0.228039 0.0927197) 0 624 1
(0.0185752 0.186253 0.482564 0.312608) 0 624 1
(0.0222768 0.279497 0.360429 0.337797) 0 624 1
(0.189396 0.0255101 0.177063 0.608031) 0 624 1
(0.293044 0.270131 0.107399 0.329425) 0 624 1
(0.160456 0.242435 0.191301 0.405808) 0 624 1
(0.248021 0.581581 0.0139002 0.156498) 0 624 1
(0.111264 0.628091 0.246667 0.0139788) 0 624 1
(0.356996 0.0175247 0.58625 0.0392296) 0 624 1
(0.145158 0.00232332 0.348147 0.504372) 0 624 1
(0.229494 0.209889 0.487225 0.073392) 0 624 1
(0.0475332 0.132549 0.463151 0.356767) 0 624 1
(0.153676 0.281075 0.102966 0.462283) 0 624 1
(0.282193 0.26313 0.293984 0.160693) 0 624 1
(0.36138 0.0335203 0.300364 0.304735) 0 624 1
(0.0912589 0.387877 0.45674 0.0641238) 0 624 1
(0.00149398 0.525806 0.267417 0.205283) 0 624 1
(0.0419367 0.616279 0.0695481 0.272236) 1 1 1
(0.140362 0.171859 0.0222882 0.665491) 1 1 1
(0.268092 0.190967 0.277973 0.262968) 1 1 1
(0.163463 0.0817341 0.624218 0.130585) 1 1 1
(0.268379 0.275673 0.106464 0.349484) 1 1 1
(0.125635 0.276552 0.579475 0.018338) 1 1 1
(0.693961 0.22123 0.0438818 0.0409276) 1 1 1
(0.0866655 0.301232 0.032546 0.579557) 1 1 1
(0.164458 0.122712 0.684994 0.0278353) 1 1 1
(0.0372105 0.713933 0.0381627 0.210693) 1 1 1
(0.558489 0.344118 0.0332942 0.0640982) 1 1 1
(0.0345983 0.339108 0.14269 0.483604) 1 1 1
(0.211039 0.474639 0.0743496 0.239972) 1 1 1
(0.281136 0.469593 0.00556127 0.243709) 1 1 1
(0.165899 0.695167 0.00117409 0.13776) 1 1 1
(0.41239 0.154412 0.167824 0.265374) 1 1 1
(0.143155 0.446318 0.0529527 0.357574) 1 1 1
(0.364832 0.360257 0.170767 0.104144) 1 1 1
(0.551268 0.399373 0.029811 0.0195482) 1 1 1
(0.310332 0.38529 0.172886 0.131492) 1 1 1
(0.0481109 0.393884 0.0630182 0.494986) 1 1 1
(0.163311 0.407505 0.38516 0.0440237) 1 1 2
(0.158037 0.170316 0.420582 0.251066) 1 1 2
(0.212234 0.636653 0.000771928 0.150341) 1 1 2
(0.518904 0.176846 0.18283 0.12142) 1 1 2
(0.248116 0.167722 0.496193 0.0879686) 1 1 2
(0.314248 0.105134 0.432599 0.148019) 1 1 2
(0.71287 0.110337 0.0581528 0.11864) 1 1 2
(0.490047 0.137845 0.00217138 0.369936) 1 1 2
(0.38926 0.126541 0.0606159 0.423583) 1 1 2
(0.303359 0.034529 0.137228 0.524884) 1 1 2
(0.433652 0.429725 0.0790498 0.0575738) 1 1 2
(0.0466769 0.275967 0.560284 0.117071) 1 1 2
(0.307798 0.437194 0.0070163 0.247992) 1 1 2
(0.29469 0.396719 0.0838489 0.224742) 1 1 2
(0.26429 0.16802 0.438308 0.129382) 1 1 2
(0.0955261 0.095779 0.0169963 0.791699) 1 1 2
(0.0971779 0.308939 0.0930701 0.500813) 1 1 2
(0.150602 0.606764 0.181338 0.0612949) 1 1 2
(0.664369 0.101318 0.0434419 0.190871) 1 1 2
(0.13266 0.0259865 0.52273 0.318623) 1 1 2
(0.0275919 0.351264 0.490382 0.130762) 1 1 2
(0.00221432 0.950404 0.0325584 0.0148237) 1 125 1
(0.244437 0.575241 0.020146 0.160177) 1 125 1
(0.0795013 0.438346 0.452034 0.030118) 1 125 1
(0.0918265 0.51004 0.324392 0.073742) 1 125 1
(0.213295 0.132059 0.597985 0.0566611) 1 125 1
(0.373921 0.0590095 0.297464 0.269606) 1 125 1
(0.108106 0.0413383 0.365397 0.485159) 1 125 1
(0.0589333 0.380839 0.289012 0.271215) 1 125 1
(0.0511977 0.412669 0.415977 0.120156) 1 125 1
(0.606699 0.104473 0.136202 0.152626) 1 125 1
(0.536211 0.0615492 0.0631568 0.339083) 1 125 1
(0.332399 0.311266 0.265923 0.0904126) 1 125 1
(0.692756 0.0200562 0.201442 0.085746) 1 125 1
(0.362687 0.544461 0.0235152 0.0693373) 1 125 1
(0.0626056 0.174837 0.434594 0.327963) 1 125 1
(0.597263 0.242264 0.00822898 0.152244) 1 125 1
(0.0494757 0.543329 0.0730171 0.334179) 1 125 1
(0.102541 0.18815 0.628507 0.0808021) 1 125 1
(0.117678 0.6954 0.129577 0.0573453) 1 125 1
(0.330128 0.0159266 0.0128897 0.641056) 1 125 1
(0.164465 0.182744 0.548837 0.103954) 1 125 1
(0.498179 0.0277743 0.371339 0.102707) 1 125 2
(0.0257328 0.170627 0.772811 0.0308291) 1 125 2
(0.19148 0.349982 0.127131 0.331407) 1 125 2
(0.283853 0.0954942 0.194414 0.426239) 1 125 2
(0.11585 0.0581931 0.81756 0.00839653) 1 125 2
(0.20057 0.664391 0.0599386 0.0751003) 1 125 2
(0.607952 0.18531 0.105968 0.100771) 1 125 2
(0.141898 0.65915 0.197261 0.00169169) 1 125 2
(0.166829 0.587488 0.0101319 0.235551) 1 125 2
(0.232009 0.0407559 0.424606 0.302629) 1 125 2
(0.617071 0.240932 0.0171406 0.124856) 1 125 2
(0.0472057 0.0976977 0.471196 0.3839) 1 125 2
(0.106603 0.315249 0.143745 0.434404) 1 125 2
(0.195888 0.312083 0.0522392 0.43979) 1 125 2
(0.2476 0.169833 0.0851723 0.497395) 1 125 2
(0.0375797 0.391847 0.473547 0.0970272) 1 125 2
(0.321726 0.317448 0.00275699 0.358069) 1 125 2
(0.352955 0.142745 0.0430362 0.461264) 1 125 2
(0.385229 0.268263 0.31478 0.0317278) 1 125 2
(0.0732832 0.12779 0.455937 0.34299) 1 125 2
(0.481638 0.0907753 0.312415 0.115173) 1 125 2
(0.0249202 0.639728 0.116047 0.219305) 1 125 2
(0.584386 0.0241946 0.212286 0.179134) 1 250 1
(0.454538 0.110811 0.0119063 0.422745) 1 250 1
(0.196351 0.0844997 0.27965 0.4395) 1 250 1
(0.352876 0.20422 0.187716 0.255189) 1 250 1
(0.266646 0.3058 0.0272602 0.400294) 1 250 1
(0.138112 0.221357 0.158665 0.481866) 1 250 1
(0.276707 0.370571 0.0303676 0.322354) 1 250 1
(0.068522 0.403722 0.431467 0.0962884) 1 250 1
(0.0449208 0.137079 0.450744 0.367256) 1 250 1
(0.385777 0.476294 0.0765888 0.0613399) 1 250 1
(0.414765 0.228866 0.178785 0.177584) 1 250 1
(0.0849273 0.697077 0.113097 0.104899) 1 250 1
(0.0588364 0.0350921 0.438869 0.467202) 1 250 1
(0.175829 0.279679 0.135436 0.409056) 1 250 1
(0.187306 0.517884 0.11436 0.18045) 1 250 1
(0.481411 0.207994 0.247457 0.063139) 1 250 1
(0.0600096 0.34758 0.411275 0.181135) 1 250 1
(0.00589544 0.269138 0.506719 0.218249) 1 250 1
(0.48611 0.0853331 0.337042 0.0915151) 1 250 1
(0.0333937 0.387425 0.0590299 0.520151) 1 250 1
(0.0126515 0.423077 0.0228127 0.541458) 1 250 1
(0.239569 0.128412 0.56142 0.0705995) 1 250 1
(0.164228 0.484714 0.248052 0.103005) 1 250 2
(0.0767141 0.702561 0.0647428 0.155983) 1 250 2
(0.35811 0.0219163 0.250754 0.36922) 1 250 2
(0.0701344 0.570475 0.230639 0.128752) 1 250 2
(0.392791 0.346991 0.109434 0.150784) 1 250 2
(0.0878975 0.118032 0.435303 0.358767) 1 250 2
(0.0716977 0.0564551 0.657235 0.214612) 1 250 2
(0.0563311 0.312063 0.0337792 0.597826) 1 250 2
(0.0635862 0.0725709 0.0685581 0.795285) 1 250 2
(0.755798 0.0764198 0.0858851 0.0818975) 1 250 2
(0.0402601 0.29142 0.613004 0.0553161) 1 250 2
(0.301225 0.144443 0.510107 0.044225) 1 250 2
(0.22113 0.34801 0.317824 0.113036) 1 250 2
(0.00639682 0.332586 0.137938 0.52308) 1 250 2
(0.122916 0.0871389 0.669274 0.120671) 1 250 2
(0.357368 0.0616727 0.394869 0.18609) 1 250 2
(0.130529 0.0817318 0.258641 0.529098) 1 250 2
(0.668826 0.0465186 0.0310087 0.253646) 1 250 2
(0.040908 0.0636256 0.721976 0.17349) 1 250 2
(0.0131367 0.0611118 0.520973 0.404779) 1 250 2
(0.299832 0.113598 0.439386 0.147184) 1 250 2
(0.0435047 0.325058 0.00495797 0.62648) 1 375 1
(0.00634656 0.639745 0.0473747 0.306534) 1 375 1
(0.0898938 0.333936 0.284196 0.291974) 1 375 1
(0.174706 0.0571713 0.49141 0.276712) 1 375 1
(0.0996176 0.144796 0.106058 0.649528) 1 375 1
(0.518051 0.0217666 0.404063 0.0561201) 1 375 1
(0.169298 0.384314 0.376347 0.0700406) 1 375 1
(0.318565 0.288 0.373368 0.0200669) 1 375 1
(0.2057 0.261549 0.198802 0.333949) 1 375 1
(0.139567 0.359248 0.13183 0.369355) 1 375 1
(0.458774 0.153414 0.363382 0.0244298) 1 375 1
(0.45786 0.00432943 0.143694 0.394117) 1 375 1
(0.277684 0.0666785 0.229179 0.426458) 1 375 1
(0.106949 0.0118398 0.877833 0.00337809) 1 375 1
(0.331754 0.236383 0.0361363 0.395727) 1 375 1
(0.204935 0.558369 0.108418 0.128279) 1 375 1
(0.418867 0.49051 0.0115817 0.0790414) 1 375 1
(0.230695 0.133597 0.118223 0.517485) 1 375 1
(0.253844 0.137409 0.307023 0.301724) 1 375 1
(0.140671 0.168145 0.120503 0.57068) 1 375 1
(0.632665 0.0172359 0.00768189 0.342418) 1 375 1
(0.328785 0.459278 0.205888 0.00604915) 1 375 2
(0.425214 0.0224611 0.46006 0.0922646) 1 375 2
(0.636362 0.0286525 0.24218 0.0928062) 1 375 2
(0.25769 0.100017 0.581855 0.0604381) 1 375 2
(0.0737415 0.351751 0.565861 0.00864626) 1 375 2
(0.292564 0.177641 0.331827 0.197968) 1 375 2
(0.301037 0.269186 0.201688 0.228088) 1 375 2
(0.131289 0.0126869 0.553706 0.302319) 1 375 2
(0.301674 0.00804082 0.623618 0.0666673) 1 375 2
(0.102361 0.252063 0.0791878 0.566388) 1 375 2
(0.0631503 0.724665 0.0726516 0.139533) 1 375 2
(0.21237 0.0805872 0.543449 0.163593) 1 375 2
(0.00120233 0.601132 0.226056 0.17161) 1 375 2
(0.100293 0.356197 0.0953606 0.44815) 1 375 2
(0.537449 0.182616 0.044784 0.235151) 1 375 2
(0.40659 0.033357 0.435305 0.124747) 1 375 2
(0.132081 0.0692671 0.739202 0.0594493) 1 375 2
(0.215298 0.113062 0.532495 0.139145) 1 375 2
(0.0477184 0.291247 0.511033 0.150001) 1 375 2
(0.0195027 0.480851 0.184565 0.315081) 1 375 2
(0.128859 0.653378 0.153709 0.0640534) 1 375 2
(0.302979 0.442722 0.146402 0.107897) 1 500 1
(0.171043 0.238257 0.410367 0.180333) 1 500 1
(0.0631006 0.0707234 0.0602179 0.805958) 1 500 1
(0.030278 0.307344 0.408121 0.254257) 1 500 1
(0.340348 0.0442521 0.599567 0.0158329) 1 500 1
(0.406287 0.0970546 0.16864 0.328018) 1 500 1
(0.0403284 0.0860619 0.357069 0.516541) 1 500 1
(0.0710184 0.123421 0.626666 0.178895) 1 500 1
(0.237612 0.114183 0.271294 0.376911) 1 500 1
(0.411921 0.118726 0.0449573 0.424396) 1 500 1
(0.652725 0.110663 0.113932 0.12268) 1 500 1
(0.144391 0.0470868 0.0161683 0.792354) 1 500 1
(0.299838 0.349504 0.286696 0.0639627) 1 500 1
(0.159177 0.0948521 0.104608 0.641363) 1 500 1
(0.197454 0.25606 0.246766 0.29972) 1 500 1
(0.0364953 0.0514852 0.472781 0.439239) 1 500 1
(0.358955 0.452955 0.0683529 0.119737) 1 500 1
(0.541696 0.0888053 0.130855 0.238644) 1 500 1
(0.150169 0.177611 0.437672 0.234549) 1 500 1
(0.14732 0.212618 0.390336 0.249726) 1 500 1
(0.645794 0.173844 0.147039 0.0333231) 1 500 1
(0.165488 0.113049 0.205549 0.515914) 1 500 2
(0.166988 0.270025 0.265242 0.297745) 1 500 2
(0.436603 0.042517 0.218638 0.302242) 1 500 2
(0.136965 0.578231 0.133533 0.15127) 1 500 2
(0.384666 0.198505 0.368006 0.0488225) 1 500 2
(0.258958 0.0975625 0.311395 0.332085) 1 500 2
(0.0870532 0.582897 0.308774 0.0212756) 1 500 2
(0.345177 0.271937 0.261902 0.120985) 1 500 2
(0.0963979 0.544635 0.161429 0.197538) 1 500 2
(0.0414056 0.0414113 0.547474 0.369709) 1 500 2
(0.269991 0.0325855 0.13544 0.561984) 1 500 2
(0.709692 0.147208 0.0917669 0.0513332) 1 500 2
(0.556184 0.0669761 0.357274 0.0195651) 1 500 2
(0.182202 0.162712 0.199439 0.455647) 1 500 2
(0.0135461 0.666578 0.212873 0.107003) 1 500 2
(0.0462784 0.590564 0.187701 0.175456) 1 500 2
(0.342098 0.0264818 0.334084 0.297335) 1 500 2
(0.0386896 0.387403 0.503559 0.0703489) 1 500 2
(0.261266 0.446317 0.163298 0.129119) 1 500 2
(0.323716 0.0537314 0.210828 0.411725) 1 500 2
(0.95053 0.0156811 0.0329906 0.000798257) 1 500 2
(0.109739 0.0967929 0.46631 0.327158) 1 0 1
(0.000783348 0.0591049 0.195333 0.744779) 1 0 1
(0.139919 0.400212 0.352458 0.10741) 1 0 1
(0.193901 0.320912 0.341216 0.143971) 1 0 1
(0.322107 0.0231611 0.0879053 0.566827) 1 0 1
(0.237786 0.252925 0.109892 0.399398) 1 0 1
(0.088809 0.482135 0.394846 0.0342095) 1 0 1
(0.468142 0.187745 0.221085 0.123028) 1 0 1
(0.46404 0.131955 0.0934692 0.310535) 1 0 1
(0.285694 0.0259848 0.526054 0.162267) 1 0 1
(0.231191 0.0909388 0.17412 0.50375) 1 0 1
(0.0485713 0.144042 0.311115 0.496272) 1 0 1
(0.0852518 0.279187 0.305259 0.330303) 1 0 1
(0.0431929 0.249781 0.411644 0.295382) 1 0 1
(0.0273815 0.019112 0.850113 0.103394) 1 0 1
(0.333513 0.0648684 0.0250321 0.576586) 1 0 1
(0.174186 0.326554 0.481483 0.0177772) 1 0 1
(0.345409 0.0122633 0.392555 0.249773) 1 0 1
(0.10456 0.513031 0.263729 0.11868) 1 0 1
(0.0722152 0.435716 0.227464 0.264605) 1 0 1
(0.269066 0.0849643 0.370399 0.275571) 1 0 1
(0.567874 0.00348991 0.175866 0.252771) 1 0 2
(0.275432 0.288104 0.411661 0.0248033) 1 0 2
(0.0956927 0.255679 0.257972 0.390656) 1 0 2
(0.165213 0.426969 0.165531 0.242287) 1 0 2
(0.049602 0.0590128 0.308654 0.582731) 1 0 2
(0.00707132 0.423573 0.0440599 0.525296) 1 0 2
(0.647044 0.00198229 0.0794359 0.271537) 1 0 2
(0.111871 0.195904 0.106147 0.586077) 1 0 2
(0.0321958 0.649663 0.209003 0.109138) 1 0 2
(0.508492 0.236655 0.129463 0.12539) 1 0 2
(0.0980731 0.628706 0.103882 0.169339) 1 0 2
(0.179433 0.784666 0.0259577 0.00994341) 1 0 2
(0.157279 0.294174 0.451387 0.0971606) 1 0 2
(0.373923 0.390056 0.130014 0.106007) 1 0 2
(0.193943 0.109182 0.535739 0.161135) 1 0 2
(0.0641122 0.0704549 0.847594 0.0178391) 1 0 2
(0.14981 0.347787 0.325169 0.177233) 1 0 2
(0.711815 0.018309 0.151459 0.118417) 1 0 2
(0.661702 0.0480616 0.0633131 0.226923) 1 0 2
(0.0639098 0.0353397 0.454325 0.446426) 1 0 2
(0.253799 0.177597 0.32036 0.248245) 1 0 2
(0.273165 0.0541344 0.184709 0.487991) 2 2 1
(0.232769 0.0762161 0.291825 0.399189) 2 2 1
(0.578483 0.0239039 0.290604 0.107008) 2 2 1
(0.289159 0.0212856 0.112808 0.576747) 2 2 1
(0.176217 0.0288108 0.582147 0.212826) 2 2 1
(0.179365 0.366641 0.346073 0.107921) 2 2 1
(0.460915 0.247637 0.230941 0.0605072) 2 2 1
(0.0246072 0.0540362 0.587007 0.33435) 2 2 1
(0.0839385 0.181503 0.480105 0.254453) 2 2 1
(0.338074 0.240782 0.273159 0.147985) 2 2 1
(0.00352279 0.171262 0.692507 0.132708) 2 2 1
(0.168639 0.10597 0.411357 0.314034) 2 2 1
(0.658966 0.079484 0.219007 0.042543) 2 2 1
(0.0944778 0.471834 0.286797 0.146891) 2 2 1
(0.183939 0.0576419 0.303908 0.454511) 2 2 1
(0.499992 0.199457 0.0205972 0.279954) 2 2 1
(0.179098 0.455325 0.133985 0.231593) 2 2 1
(0.126236 0.239898 0.570225 0.0636409) 2 2 1
(0.10458 0.0379221 0.583519 0.273979) 2 2 1
(0.0745983 0.0985585 0.12486 0.701984) 2 2 1
(0.277458 0.238851 0.300908 0.182783) 2 2 1
(0.402836 0.571877 0.00486037 0.0204265) 2 2 1
(0.0971504 0.423771 0.0197512 0.459328) 2 2 2
(0.182514 0.456121 0.14131 0.220055) 2 2 2
(0.570987 0.151963 0.198663 0.0783869) 2 2 2
(0.0822081 0.314867 0.462583 0.140342) 2 2 2
(0.775201 0.0013295 0.223234 0.000235385) 2 2 2
(0.455952 0.0819018 0.354347 0.107799) 2 2 2
(0.130175 0.0911735 0.509149 0.269503) 2 2 2
(0.180683 0.092283 0.621382 0.105651) 2 2 2
(0.562221 0.00217433 0.368634 0.0669714) 2 2 2
(0.111869 0.476637 0.135497 0.275998) 2 2 2
(0.166173 0.379657 0.162894 0.291276) 2 2 2
(0.156416 0.46442 0.203458 0.175707) 2 2 2
(0.123091 0.15133 0.339726 0.385853) 2 2 2
(0.0956563 0.0377654 0.472039 0.39454) 2 2 2
(0.624966 0.205085 0.0962546 0.0736945) 2 2 2
(0.210859 0.000898625 0.576013 0.212229) 2 2 2
(0.0424482 0.170397 0.528105 0.259049) 2 2 2
(0.102636 0.0725372 0.670003 0.154823) 2 2 2
(0.0216482 0.370314 0.375927 0.232111) 2 2 2
(0.160571 0.270144 0.515532 0.0537537) 2 2 2
(0.0372057 0.205931 0.183587 0.573277) 2 2 2
(0.172454 0.321519 0.361644 0.144384) 2 126 1
(0.22425 0.0901714 0.562622 0.122957) 2 126 1
(0.250761 0.0940999 0.314945 0.340195) 2 126 1
(0.261987 0.380557 0.116768 0.240688) 2 126 1
(0.627415 0.152083 0.0836589 0.136843) 2 126 1
(0.354545 0.0136238 0.397661 0.23417) 2 126 1
(0.157148 0.311517 0.248771 0.282564) 2 126 1
(0.338572 0.21558 0.404182 0.0416649) 2 126 1
(0.00712426 0.178034 0.320666 0.494176) 2 126 1
(0.182137 0.384535 0.186588 0.246741) 2 126 1
(0.208564 0.0340364 0.303776 0.453623) 2 126 1
(0.119641 0.305159 0.345198 0.230001) 2 126 1
(0.198343 0.0179791 0.380232 0.403445) 2 126 1
(0.176963 0.0427169 0.276109 0.504211) 2 126 1
(0.0318979 0.596113 0.186666 0.185323) 2 126 1
(0.123338 0.11341 0.198893 0.564359) 2 126 1
(0.138516 0.0580897 0.622808 0.180586) 2 126 1
(0.195979 0.444161 0.0466711 0.313189) 2 126 1
(0.0987276 0.116128 0.202994 0.582151) 2 126 1
(0.00151787 0.459712 0.420596 0.118175) 2 126 1
(0.0641948 0.282472 0.365123 0.28821) 2 126 1
(0.112638 0.56547 0.29321 0.0286816) 2 126 2
(0.735481 0.177568 0.0127283 0.0742228) 2 126 2
(0.142443 0.594765 0.0980767 0.164715) 2 126 2
(0.318892 0.0595631 0.344638 0.276907) 2 126 2
(0.245921 0.470223 0.0529687 0.230887) 2 126 2
(0.124957 0.211479 0.464495 0.199069) 2 126 2
(0.507931 0.0322099 0.124404 0.335455) 2 126 2
(0.0511805 0.585749 0.138991 0.22408) 2 126 2
(0.47857 0.0638256 0.226278 0.231327) 2 126 2
(0.101589 0.263381 0.327238 0.307792) 2 126 2
(0.318904 0.205946 0.120069 0.355081) 2 126 2
(0.630467 0.0360528 0.0711788 0.262301) 2 126 2
(0.0424314 0.169723 0.589165 0.19868) 2 126 2
(0.607737 0.0370263 0.304717 0.0505199) 2 126 2
(0.143005 0.178476 0.566474 0.112044) 2 126 2
(0.0363184 0.493636 0.0705944 0.399451) 2 126 2
(0.0485341 0.0757306 0.41004 0.465695) 2 126 2
(0.301925 0.0293917 0.325197 0.343487) 2 126 2
(0.181751 0.129912 0.115619 0.572718) 2 126 2
(0.299229 0.0859843 0.0553752 0.559412) 2 126 2
(0.0201876 0.0939267 0.3902 0.495685) 2 126 2
(0.327194 0.540226 0.081779 0.0508003) 2 126 2
(0.0842441 0.0846541 0.700371 0.130731) 2 251 1
(0.736048 0.0306778 0.0280432 0.205231) 2 251 1
(0.238214 0.634217 0.00245412 0.125115) 2 251 1
(0.399989 0.341409 0.227862 0.0307398) 2 251 1
(0.788999 0.0907029 0.0133859 0.106912) 2 251 1
(0.00766885 0.461783 0.220765 0.309784) 2 251 1
(0.275359 0.669376 0.0388915 0.0163743) 2 251 1
(0.528405 0.115812 0.172349 0.183434) 2 251 1
(0.322841 0.384293 0.133392 0.159474) 2 251 1
(0.154569 0.182399 0.279494 0.383538) 2 251 1
(0.541712 0.0616827 0.243579 0.153026) 2 251 1
(0.0476191 0.25983 0.597316 0.0952345) 2 251 1
(0.111242 0.111509 0.215704 0.561545) 2 251 1
(0.394821 0.0233131 0.372172 0.209693) 2 251 1
(0.25149 0.433816 0.152152 0.162543) 2 251 1
(0.332553 0.210715 0.275632 0.181101) 2 251 1
(0.256735 0.0392601 0.00744619 0.696559) 2 251 1
(0.0784166 0.362911 0.427545 0.131127) 2 251 1
(0.0842164 0.353726 0.0511255 0.510932) 2 251 1
(0.284504 0.214699 0.315368 0.185429) 2 251 1
(0.660365 0.0408429 0.10826 0.190532) 2 251 1
(0.106482 0.487253 0.132577 0.273687) 2 251 2
(0.509839 0.441774 0.00108401 0.0473035) 2 251 2
(0.0688727 0.154131 0.451319 0.325677) 2 251 2
(0.353493 0.246549 0.106652 0.293305) 2 251 2
(0.0279186 0.0676115 0.231654 0.672816) 2 251 2
(0.365659 0.150204 0.457259 0.0268777) 2 251 2
(0.253843 0.130173 0.156085 0.459899) 2 251 2
(0.311566 0.230071 0.0870396 0.371324) 2 251 2
(0.638142 0.136819 0.149844 0.075195) 2 251 2
(0.136472 0.0694123 0.354497 0.439618) 2 251 2
(0.208875 0.685396 0.091259 0.0144701) 2 251 2
(0.688979 0.128851 0.140072 0.0420981) 2 251 2
(0.190288 0.178966 0.320738 0.310008) 2 251 2
(0.019244 0.94545 0.0160792 0.0192272) 2 251 2
(0.0946452 0.477867 0.414291 0.0131958) 2 251 2
(0.271632 0.318248 0.0774043 0.332715) 2 251 2
(0.130355 0.222665 0.0223577 0.624622) 2 251 2
(0.158386 0.554002 0.0194131 0.268199) 2 251 2
(0.322262 0.180087 0.179218 0.318433) 2 251 2