/*--------------------------------*- C++ -*----------------------------------*\
  =========                 |
  \\      /  F ield         | OpenFOAM: The Open Source CFD Toolbox
   \\    /   O peration     | Website:  https://openfoam.org
    \\  /    A nd           | Version:  7
     \\/     M anipulation  |
\*---------------------------------------------------------------------------*/
FoamFile
{
    version     2.0;
    format      ascii;
    class       vectorField;
    location    "0/lagrangian/dsmc";
    object      U;
}
// * * * * * * * * * * * * * * * * * * * * * * * * * * * * * * * * * * * * * //


31788
(
(-272.26 356.202 -469.406)
(-132.337 260.855 -730.904)
(-74.1885 984.719 -84.3171)
(-768.459 409.39 352.662)
(-6.16643 -533.145 -104.407)
(-308.071 -101.591 -931.397)
(66.8436 -297.693 373.59)
(6.54955 -736.464 243.858)
(17.5275 48.5219 221.49)
(30.5211 -31.6165 651.102)
(-256.216 531.109 -1104.81)
(781.246 21.4142 22.2231)
(-135.25 -245.701 133.243)
(504.488 -211.443 -420.631)
(376.738 -634.641 115.441)
(276.333 147.927 -609.974)
(333.055 -33.6211 652.864)
(-630.248 252.972 581.266)
(382.599 -22.0578 1001.41)
(-754.525 -273.959 61.6133)
(-3.60698 -563.665 -38.8524)
(-980.857 234.071 871.474)
(-427.61 -767.223 495.133)
(1070.98 832.366 -365.977)
(108.971 659.191 407.523)
(390.705 582.191 -1499.19)
(65.6472 338.863 356.218)
(-402.857 -23.2148 -560.238)
(-1462.17 849.762 202.843)
(-407.812 -536.512 850.964)
(425.923 -372.761 -256.355)
(-902.904 899.953 264.219)
(386.093 215.245 1385.72)
(-268.815 776.523 -963.713)
(-707.833 6.37224 -69.4766)
(342.378 83.5783 15.4863)
(-607.965 593.097 128.282)
(334.144 -524.471 -137.832)
(66.6976 434.53 -8.50643)
(-301.602 270.35 -611.963)
(-110.015 -799.834 -200.837)
(55.3328 590.955 -476.695)
(293.857 -357.133 391.609)
(187.374 -377.312 -269.491)
(-661.929 -195.246 224.253)
(686.837 195.519 -33.075)
(-810.463 304.545 -458.215)
(600.207 -508.34 354.908)
(-231.871 1039.03 -152.802)
(-395.867 -614.849 -281.661)
(315.192 -526.712 719.542)
(128.88 1569.35 612.108)
(194.426 95.297 389.171)
(-62.8262 -206.628 -644.073)
(-491.152 13.4883 843.499)
(216.725 526.088 5.24294)
(-7.76093 660.57 391.612)
(537.931 -324.125 789.311)
(578.352 597.883 -463.199)
(356.424 -536.275 -80.7427)
(744.409 51.4428 52.0538)
(-7.73759 -12.0897 265.364)
(-164.746 -192.487 358.91)
(-130.705 -182.524 401.083)
(-864.923 175.262 -429.014)
(358.288 72.0781 474.844)
(1435.79 553.09 -1197.67)
(433.639 -541.808 -185.048)
(-587.116 -129.01 -1029.56)
(60.5367 -959.695 275.393)
(-414.142 -85.3955 -63.5991)
(335.323 -506.08 292.147)
(401.375 -304.996 -519.872)
(285.702 -426.81 -28.264)
(-663.728 -3.73748 260.341)
(-398.414 992.392 489.504)
(64.208 590.048 573.486)
(-674.063 3.22439 -118.367)
(280.641 13.4586 -748.56)
(1041.73 -34.8299 -1356.7)
(135.732 36.3756 -433.195)
(703.091 -521.908 -165.618)
(-460.615 910.052 -112.956)
(-468.274 993.275 -50.2872)
(289.051 -1079.33 1022.34)
(185.296 498.923 -48.3874)
(351.292 277.628 -6.19508)
(-450.658 57.6413 171.963)
(51.8385 64.6228 63.3978)
(-300.895 632.599 -90.2105)
(592.705 13.8154 -164.094)
(277.224 -221.944 543.88)
(-575.452 565.943 455.93)
(-731.558 868.295 231.652)
(-193.419 271.726 135.97)
(-464.416 1003 172.116)
(-5.25231 239.585 -19.1048)
(-68.9271 -306.162 -394.31)
(-892.044 -397.727 -465.639)
(309.572 488.244 61.3836)
(-195.715 -368.782 1515.26)
(398.255 -136.883 -391.207)
(-242.18 -22.6682 -46.7721)
(547.422 -1180.01 197.709)
(-82.0091 -39.5394 -225.798)
(-153.023 -133.814 -70.1126)
(-53.801 108.811 78.1422)
(315.331 50.5227 389.255)
(-510.048 -476.018 471.626)
(1006.28 -227.866 -689.257)
(-575.919 55.8058 -732.2)
(-170.291 -544.103 -364.53)
(-565.686 -643.072 267.488)
(186.882 -291.698 1324.93)
(53.6001 -317.929 -728.835)
(-278.073 -164.105 -141.092)
(646.575 571.869 -150.727)
(-544.855 -132.76 -375.333)
(825.697 -69.0095 -17.8555)
(1096.28 568.791 -467.108)
(-484.938 -124.985 -783.406)
(380.782 323.173 299.796)
(838.157 180.807 280.069)
(-436.204 696.528 -74.2016)
(-133.658 -65.5289 -419.542)
(840.619 -224.116 -615.945)
(-274.579 417.108 46.8648)
(71.6668 -388.771 83.8455)
(-482.74 -270.062 -361.017)
(-355.52 -590.054 832.065)
(334.155 955.2 1156.1)
(-258.05 -17.0091 1372.64)
(574.579 44.8576 278.137)
(-840.39 590.988 1191.29)
(369.32 -268.164 -730.521)
(667.555 61.5317 -445.891)
(59.8124 -873.123 -498.413)
(429.3 495.668 -596.804)
(-875.712 -957.864 -757.281)
(-115.436 338.588 -54.8553)
(-366.352 -109.627 252.852)
(-575.003 347.432 727.5)
(968.05 155.637 -167.16)
(-595.806 523.335 955.624)
(331.549 -79.3414 275.147)
(-51.3916 -668.222 -341.832)
(-304.303 3.62124 -198.33)
(-165.402 -1063.51 743.4)
(-366.973 -553.025 -193.834)
(-358.983 210.379 946.868)
(-52.6156 -495.382 742.531)
(-177.248 -1384.16 -1191.01)
(605.989 301.729 145.102)
(-354.251 -162.904 -1034.91)
(-107.236 -475.204 410.011)
(-138.839 148.992 -666.54)
(-0.785659 -710.553 607.792)
(184.875 -662.412 -20.9032)
(678.372 250.207 746.725)
(-261.011 -27.6489 9.9272)
(-22.6548 860.957 497.161)
(-11.4837 458.242 95.5997)
(-314.965 23.069 297.508)
(-480.932 88.4167 101.745)
(-164.196 -395.032 -693.031)
(328.91 -677.524 -469.497)
(-477.952 -493.042 237.151)
(416.241 -488.802 -419.148)
(703.837 461.927 -602.418)
(579.898 -18.9855 -35.0976)
(453.062 -450.826 -218.805)
(-519.045 -509.121 1224.3)
(1106.92 221.074 109.2)
(273.519 726.021 19.9585)
(-81.1793 448.78 721.19)
(509.205 684.334 -647.798)
(264.748 276.781 42.941)
(362.514 251.369 868.166)
(-239.885 -548.542 -355.51)
(565.937 251.535 279.674)
(567.258 -337.263 -344.581)
(-164.881 165.47 -109.754)
(-116.771 -164.711 1199.75)
(-521.583 -553.257 145.994)
(-668.189 257.873 297.355)
(-281.851 414.842 177.376)
(11.6044 -442.702 15.4504)
(-442.625 560.5 757.048)
(638.308 -618.131 533.4)
(-172.32 313.315 282.323)
(-644.385 -113.993 -6.89971)
(138.218 -366.378 101.516)
(-201.368 -371.439 109.707)
(-326.714 -158.755 -73.3903)
(-1048.34 119.9 -189.393)
(410.433 270.141 824.94)
(27.804 784.983 40.8152)
(208.531 421.047 561.991)
(-1219.73 977.309 -92.8323)
(623.632 136.152 -910.589)
(-1051.96 309.875 778.177)
(-461.847 898.282 313.383)
(-147.486 191.022 -68.1018)
(215.113 -66.0283 1126.41)
(297.22 -725.894 -1198.62)
(-694.473 693.964 351.648)
(-238.462 569.502 -218.849)
(-1292.24 -447.228 153.54)
(-154.649 908.225 -221.199)
(-440.736 917.273 -120.728)
(333.881 -681.181 180.156)
(126.416 -241.052 -66.2697)
(-164.229 187.71 -329.208)
(-558.408 -165.568 -749.075)
(230.167 455.366 -200.589)
(-189.614 882.139 -1128.19)
(-183.917 430.231 297.818)
(157.583 1112.33 343.142)
(-57.5774 -569.35 369.599)
(181.174 -33.582 -160.855)
(251.006 -718.908 -533.124)
(-762.011 -302.234 -567.581)
(303.027 595.838 371.323)
(127.025 324.351 -316.81)
(-431.567 708.976 949.838)
(-407.987 -380.783 112.403)
(577.954 -260.788 -673.965)
(73.996 -469.045 930.31)
(-187.562 -624.58 197.291)
(-155.602 712.216 17.8551)
(394.601 -290.799 -58.9271)
(439.836 8.07432 -178.718)
(136.322 44.5305 -1237.71)
(-774.379 -275.12 415.973)
(879.63 233.155 678.037)
(508.336 508.027 -47.8275)
(635.476 -673.713 -645.021)
(-56.4373 541.705 110.939)
(-94.5587 79.862 -265.521)
(51.5285 -26.1909 7.30994)
(165.156 -365.227 117.242)
(596.55 -89.7179 513.068)
(302.143 -589.963 -278.871)
(224.921 566.224 894.697)
(91.1965 -51.5588 761.095)
(728.103 50.2239 -276.184)
(275.876 352.504 -576.193)
(-165.724 -695.729 639.609)
(210.481 -190.009 -305.1)
(217.122 -421.866 -1175.06)
(134.557 -287.202 -538.097)
(72.0744 112.919 117.531)
(1031.9 -889.884 -415.629)
(-451.704 622.79 78.2584)
(336.803 -972.221 514.743)
(1.17611 868.624 452.586)
(366.673 52.9626 197.499)
(-41.3499 -229.176 -425.788)
(-235.803 666.164 666.969)
(775.368 -249.226 -0.925799)
(265.597 -331.17 -313.779)
(-692.34 -82.7474 497.93)
(-323.769 -1165.19 203.34)
(-449.913 5.04389 -449.419)
(436.373 1028.4 -84.7222)
(-478.882 445.139 -685.636)
(-52.7929 -412.502 -628.247)
(-225.223 352.587 732.988)
(1358.39 181.332 -65.3521)
(-100.252 -177.196 -705.224)
(418.18 -323.5 114.81)
(523.836 59.5079 581.773)
(525.823 245.696 1067.11)
(554.65 -280.275 1151.19)
(1033.84 -278.851 224.101)
(696.068 -1054.31 463.714)
(-22.6074 -435.217 -969.725)
(-884.894 -466.139 699.233)
(1100.46 754.383 -617.306)
(371.006 -54.2468 160.085)
(437.886 212.538 385.225)
(-178.54 -1105.94 721.364)
(405.633 226.786 -775.986)
(635.602 587.492 -285.264)
(-417.682 77.9199 -839.703)
(-646.843 -469.859 42.3659)
(-470.106 -807.805 -629.094)
(144.721 -121.491 451.384)
(-201.007 -539.74 1233.23)
(159.895 490.463 744.521)
(625.797 1105.98 84.943)
(384.638 397.181 -9.87157)
(23.9702 -311.469 275.531)
(-761.072 -497.242 -229.627)
(-288.96 -153.111 68.6775)
(206.709 44.7625 -291.516)
(838.561 550.611 146.339)
(106.209 -636.207 8.52275)
(333.988 319.315 720.882)
(39.6104 257.016 809.189)
(-188.906 594.902 -87.8087)
(1040.88 779.397 779.862)
(-182.41 -26.3598 -544.571)
(414.567 557.32 -235.021)
(-324.876 -11.9244 253.39)
(-82.3312 -742.851 177.591)
(469.187 314.676 945.099)
(312.545 -236.9 -320.62)
(-50.4984 957.766 61.8263)
(-103.566 -412.094 80.7616)
(-285.331 -5.75274 109.422)
(279.452 -275.552 157.762)
(-107.768 -192.88 237.04)
(-246.433 355.41 -278.54)
(-615.694 469.344 -667.473)
(167.982 -711.494 655.441)
(30.0711 -558.426 -41.3296)
(-372.404 572.554 -786.73)
(619.036 277.918 956.206)
(-937.579 -347.773 -868.364)
(-590.351 19.7915 249.437)
(34.7414 -517.342 352.618)
(-794.914 -106.486 -286.917)
(-96.994 604.739 -255.713)
(681.004 -831.803 -508.278)
(-508.117 -298.962 -287.208)
(-706.261 -1460.18 -4.22555)
(317.684 30.0369 299.427)
(635.514 326.917 936.285)
(-75.2605 223.715 161.548)
(-563.274 -536.148 608.075)
(-636.103 -62.2904 -500.666)
(-1484.79 -216.915 208.417)
(-123.704 -442.26 -821.533)
(797.016 -44.1284 -757.651)
(-108.069 352.673 -217.514)
(19.7673 284.184 331.994)
(445.022 -35.1284 109.456)
(481.592 481.84 189.001)
(464.135 -28.1887 -1085.79)
(322.479 -229.369 221.541)
(-343.279 -461.902 -367.063)
(1040.6 86.9379 -200.121)
(746.859 158.784 -117.828)
(890.359 136.787 565.367)
(-75.6608 -73.6595 294.553)
(-819.072 -278.278 -1182.9)
(-513.932 18.9666 -632.079)
(474.653 149.679 426.454)
(-151.753 101.22 1008.29)
(454.826 -914.73 202.969)
(305.398 -3.64312 -217.498)
(-709.888 662.537 -243.449)
(-153.452 -396.919 -322.686)
(-174.055 -14.6158 -678.737)
(305.064 653.706 -805.392)
(739.611 -117.296 -426.601)
(-97.8162 -325.254 537.299)
(731.982 -1269.52 793.653)
(-425.497 -665.574 311.024)
(645.375 -562.569 461.3)
(-992.325 473.337 1045.16)
(-422.215 104.534 281.915)
(169.714 768.957 -299.028)
(233.736 -501.904 671.604)
(207.171 -361.73 321.821)
(303.5 -382.821 -749.794)
(-376.722 1054.75 224.546)
(1175.2 -411.436 239.503)
(657.636 -544.529 177.637)
(216.119 399.469 -662.203)
(-690.952 771.422 346.597)
(-58.9282 47.2443 -68.5721)
(287.198 -515.86 -384.724)
(963.921 237.245 86.4617)
(-375.755 472.477 339.287)
(-652.663 -642.251 -951.926)
(435.013 -832.332 332.815)
(-702.414 460.86 -673.751)
(180.147 -20.7556 558.582)
(-573.927 -386.368 -607.328)
(64.2346 -931.014 -207.043)
(258.859 -132.629 -242.324)
(135.881 510.913 829.955)
(290.319 374.995 365.021)
(1.37093 -217.554 514.537)
(-574.223 -89.1181 -669.092)
(-867.645 -205.141 -102.351)
(-258.882 -15.287 786.116)
(133.873 -539.389 -878.482)
(285.453 120.936 -218.559)
(248.914 -237.256 312.638)
(-138.591 -112.764 218.283)
(-667.052 -819.181 816.625)
(-409.247 160.865 51.2557)
(-289.868 -169.369 -314.791)
(-256.122 -133.284 848.196)
(-553.15 22.1021 -603.669)
(-804.535 -8.04511 -998.915)
(-516.981 473.072 589.347)
(43.2289 890.533 456.287)
(915.085 -568.886 963.587)
(509.802 357.778 -592.354)
(152.378 157.596 194.913)
(1005.07 -505.42 -310.879)
(-564.941 51.9031 -597.187)
(235.873 620.516 1165.36)
(172.148 -352.915 572.989)
(204.85 -367.89 356.689)
(641.918 998.705 1181.32)
(-190.648 -151.519 -416.881)
(601.139 536.276 278.859)
(-397.966 865.947 -127.825)
(-134.488 69.3665 -579.073)
(492.858 -450.893 -389.47)
(-201.151 -35.7506 316.876)
(392.149 -50.9025 -612.157)
(-483.619 351.265 73.6816)
(-302.187 -269.427 763.129)
(-409.13 -135.418 1094.96)
(-213.737 -654.329 856.244)
(968.985 -610.317 -386.786)
(110.639 -379.658 -862.379)
(81.5538 551.698 -720.976)
(-964.825 -483.835 -433.502)
(-290.344 339.508 -10.2903)
(-723.784 943.967 -582.023)
(403.965 92.3626 1536.64)
(-183.472 397.789 -79.9258)
(672.071 74.5383 -225.979)
(298.467 -725.256 24.451)
(99.8652 -244.405 1319.25)
(-323.335 573.743 217.157)
(966.405 -584.85 -149.608)
(-6.12354 -24.3045 -420.075)
(-814.356 -1024.36 331.425)
(514.212 808.516 326.137)
(-576.063 -115.236 -42.8312)
(354.288 -183.756 -185.99)
(-698.336 -113.572 68.4641)
(192.959 -421.985 579.972)
(-552.296 706.037 -377.544)
(-155.082 -65.6273 555.383)
(-384.339 155.973 -125.281)
(374.213 132.945 18.1739)
(100.896 15.8169 237.506)
(-108.759 -276.358 -369.598)
(-90.1628 -217.102 532.129)
(-178.882 -810.061 -1329.24)
(-193.796 -382.687 52.1209)
(-431.473 -84.8967 -272.18)
(50.6841 -142.298 1283.19)
(56.8824 -337.938 166.395)
(240.095 72.3878 241.842)
(24.0581 -355.789 29.5439)
(-788.657 101.21 513.421)
(-110.219 -174.198 -189.824)
(-221.399 51.5394 -606.128)
(-72.2517 -1139.11 -334.909)
(62.7443 276.613 148.208)
(-245.609 -8.9557 -122.289)
(-465.565 128.553 -568.673)
(-41.4727 -315.655 -215.034)
(-34.9319 -558.746 -448.202)
(907.886 -572.84 -486.45)
(-119.322 234.415 -192.737)
(93.5125 -844.017 -248.453)
(-664.477 -178.501 69.7833)
(150.581 120.017 -194.805)
(367.811 167.458 696.755)
(130.249 60.9097 189.718)
(-97.1458 110.15 531.39)
(-141.876 -442.881 673.261)
(375.152 -424.793 211.2)
(-593.449 -125.774 99.6536)
(142.46 -291.559 474.771)
(115.246 657.077 841.955)
(-664.025 671.902 360.188)
(417.162 -671.301 392.145)
(-150.251 423.075 -100.226)
(-360.307 131.546 292.215)
(108.038 354.716 -853.084)
(545.501 -382.351 760.293)
(240.571 133.559 488.915)
(913.176 12.1311 173.558)
(745.357 -915.26 140.478)
(-910.209 -370.151 166.023)
(366.483 -468.569 199.387)
(-601.228 -207.856 -262.901)
(149.526 -714.921 -219.129)
(-549.854 -604.532 244.08)
(-808.555 -62.9407 -238.351)
(-836.778 -25.3265 254.855)
(-507.001 773.23 0.5958)
(-347.049 574.594 -462.592)
(71.2181 -331.863 428.081)
(499.493 -28.3092 -285.119)
(-88.5417 -360.103 -502.555)
(-275.754 -275.884 -581.654)
(-319.584 -1072.55 424.053)
(-567.152 -122.593 -444.225)
(45.4954 347.827 -897.109)
(245.886 350.888 -205.172)
(-175.712 739.133 1178.77)
(-552.129 68.8833 449.406)
(-392.846 -454.577 -34.8484)
(1098.73 48.3155 -668.734)
(-9.29132 -887.969 565.064)
(-284.191 -487.216 123.296)
(96.7716 5.40642 208.388)
(-885.139 186.653 -77.6335)
(-483.775 -839.082 -64.4835)
(-235.202 -968.351 623.467)
(687.543 71.4293 602.159)
(-800.088 182.955 -263.589)
(203.303 704.858 80.2153)
(-374.773 -1023.19 -133.028)
(597.154 191.252 -739.768)
(-161.051 951.98 485.238)
(125.744 189.09 580.572)
(-360.887 -749.942 -327.747)
(205.756 -870.091 -51.1559)
(-455.84 272.311 540.408)
(-275.67 1336.21 -656.021)
(450.98 148.543 750.108)
(223.309 -88.0237 526.507)
(-802.03 749.603 368.287)
(142.498 -5.05617 -522.574)
(-755.876 385.875 569.774)
(-93.7307 480.259 395.252)
(97.7743 611.76 -907.001)
(316.758 521.223 -784.908)
(27.9885 -504.745 728.802)
(48.8504 -312.601 -481.915)
(13.1009 -39.2425 -27.0658)
(-495.694 -188.712 -389.505)
(-426.508 1010.49 529.719)
(656.354 -241.765 -215.856)
(39.3786 60.4951 429.988)
(-331.616 423.256 -565.85)
(86.7224 229.679 289.08)
(-1034.67 -457.361 78.5901)
(-98.1866 -458.797 474.059)
(-836.191 116.784 1120.84)
(694.082 -49.0175 95.0864)
(-68.5712 433.022 331.23)
(131.536 -315.169 109.494)
(274.315 213.602 -413.892)
(35.1139 191.733 547.901)
(-174.931 62.6063 342.765)
(-812.153 -604.852 236.733)
(314.647 369.98 -340.04)
(-395.328 331.654 -35.9561)
(229.233 146.127 -457.73)
(995.807 -145.405 245.926)
(151.479 -92.9807 -445.979)
(-694.565 353.369 138.731)
(-255.391 -214.684 -197.871)
(128.554 425.565 107.654)
(-499.999 368.097 799.451)
(186.271 -386.115 103.25)
(-241.672 189.905 -166.163)
(-699.994 -167.659 -664.834)
(-47.905 -425.343 903.224)
(127.989 244.522 1402.37)
(-1037.35 -596.201 -674.239)
(-238.656 -151.91 -767.119)
(-675.77 -493.24 501.12)
(1139.77 187.094 464.773)
(38.2088 -522.754 -303.926)
(-82.6681 -386.613 -573.723)
(612.103 705.763 -182.441)
(1042.61 -410.656 -492.054)
(245.959 -177.935 -152.593)
(-448.968 247.36 426.546)
(-92.1168 701.811 -750.528)
(-904.752 -261.421 -665.339)
(76.4303 915.487 -300.187)
(295.261 380.928 -393.445)
(-370.35 1171.43 -415.449)
(-152.028 -241.222 -57.9062)
(-344.323 -441.724 401.194)
(-92.315 -469.141 1189.89)
(167.073 -412.018 70.6701)
(-180.42 762.599 325.764)
(-393.142 -52.7714 266.848)
(170.115 -371.326 -334.033)
(171.942 -893.111 -273.328)
(-795.815 230.093 413.062)
(916.739 795.005 -422.903)
(-91.682 412.942 360.732)
(-213.758 -168.051 -176.148)
(704.245 265.636 163.083)
(-524.539 -356.081 135.37)
(-455.228 -277.998 623.526)
(65.5244 -1059.22 488.505)
(-180.899 191.653 -1110.86)
(-550.507 202.511 59.707)
(-434.845 248.506 -706.486)
(391.446 36.3321 921.333)
(364.142 441.539 309.46)
(127.711 720.787 55.2359)
(-545.545 232.76 -338.348)
(-506.394 157.707 98.1632)
(-300.956 -818.125 -708.948)
(-541.522 -650.7 -519.367)
(1295.03 77.4162 140.722)
(-427.288 373.489 245.854)
(-481.894 254.844 -663.267)
(-542.081 -152.244 934.369)
(424.409 534.124 -335.563)
(192.201 -380.604 -4.05254)
(600.61 -924.163 379.388)
(-1015.29 947.382 -945.073)
(285.428 49.3474 -539.546)
(-1235.15 1183.57 -472.003)
(1078.55 -86.3459 -550.48)
(285.964 147.404 -202.535)
(411.187 -778.098 425.66)
(-119.224 -103.339 -149.754)
(-234.54 -210.78 703.617)
(34.7532 -19.668 201.142)
(-420.118 -30.5665 -819.626)
(328.994 626.758 -39.5898)
(-459.071 337.987 -127.512)
(-701.026 -360.943 -354.696)
(320.972 277.906 -524.166)
(-505.919 405.511 -229.601)
(198.521 -39.1685 349.227)
(667.866 294.519 -786.055)
(-34.0074 -277.885 987.93)
(1011.38 800.554 -168.951)
(38.0014 -101.141 -375.644)
(-659.341 474.429 689.15)
(-123.135 496.408 -602.033)
(-71.7892 -394.446 110.701)
(-603.73 525.6 145.187)
(812.327 -374.418 396.353)
(208.525 -187.236 373.489)
(-174.295 -93.1567 -1183.79)
(99.6073 460.594 -26.4609)
(-126.947 -802.492 -524.302)
(-96.3748 62.9424 -13.8469)
(-175.043 -327.932 127.436)
(101.169 366.859 -430.618)
(-47.138 1168.9 -737.228)
(-392.388 -263.605 -372.681)
(695.911 -193.234 483.819)
(322.431 1119.91 -547.23)
(-116.761 -66.4526 262.764)
(-61.694 48.7068 122.629)
(386.812 508.672 276.907)
(834.59 -935.822 722.102)
(-173.746 -409.649 -427.602)
(-745.626 -689.533 -1031.09)
(632.067 158.927 -163.442)
(-687.158 -33.3835 -233.533)
(192.789 -338.479 181.152)
(234.775 -301.754 -190.731)
(359.026 84.4452 -333.311)
(-758.888 -609.163 22.8386)
(-566.491 -239.96 -392.923)
(-615.106 -28.4226 -237.714)
(-607.907 857.217 397.214)
(-388.918 191.845 321.531)
(-752.728 1026.68 1181.6)
(-306.578 -211.611 -124.342)
(769.36 886.465 -482.363)
(-786.34 -451.618 -151.778)
(-261.464 608.578 89.2906)
(651.781 717.351 701.872)
(126.395 244.225 300.27)
(-149.297 -895.654 624.102)
(-447.59 325.154 -171.855)
(497.577 -455.709 -627.286)
(115.486 -691.535 -287.577)
(672.194 -59.6901 -227.999)
(85.4706 139.372 378.971)
(478.636 870.031 76.9557)
(209.237 -449.648 -186.236)
(-137.059 75.8274 -150.339)
(1266.8 -107.365 -325.135)
(214.485 -366.417 886.259)
(-278.346 -545.26 -617.808)
(-550.949 -943.776 -282.421)
(-633.572 838.649 -165.32)
(-189.252 524.189 -595.458)
(-323.597 106.19 1043.21)
(139.531 446.626 -157.12)
(262.427 -273.95 -641.609)
(60.8955 489.994 5.35126)
(41.0307 650.861 -506.655)
(-88.9964 -420.862 662.955)
(-560.855 502.02 49.8213)
(451.686 -149.721 645.93)
(-732.41 -25.1136 -7.23364)
(-256.543 -236.105 -703.843)
(-736.258 -180.876 691.181)
(165.437 100.78 -295.097)
(-338.943 17.5653 211.196)
(-347.497 -19.7686 -97.181)
(488.063 611.586 626.305)
(325.373 489.542 236.036)
(29.1109 -678.928 -121.807)
(778.819 -9.45946 -40.0108)
(5.76971 -213.991 357.107)
(-459.588 -513.539 265.895)
(-232.011 76.4233 149.304)
(682.221 -309.783 830.662)
(-643.298 -66.8546 151.309)
(-798.711 166.699 435.452)
(462.634 -49.415 -867.841)
(-216.417 350.397 -283.732)
(-576.416 -6.77492 -170.885)
(-131.105 -74.767 1227.73)
(-504.551 410.822 -214.131)
(-746.915 -83.5877 660.203)
(410.564 856.708 -705.982)
(410.974 -18.5192 -210.17)
(403.621 374.154 -569.454)
(642.732 -474.807 469.331)
(937.041 -34.2584 489.632)
(709.563 571.783 846.142)
(-208.184 -510.333 542.768)
(-685.493 -1019.69 163.407)
(278.237 887.061 461.028)
(688.342 -264.741 -535.473)
(379.609 -835.343 -359.582)
(-88.7952 316.736 -568.313)
(-87.6318 -256.224 569.95)
(-329.685 77.6531 499.622)
(225.392 490.527 -194.724)
(41.5447 -10.6414 -422.593)
(105.136 -262.137 981.493)
(739.889 -120.483 917.825)
(-260.393 -845.246 -242.709)
(603.051 -130.925 -394.362)
(-104.215 79.6493 -54.036)
(-621.177 -890.814 421.284)
(-166.235 735.317 99.706)
(124.556 630.556 -132.287)
(401.483 195.893 879.301)
(239.711 -353.712 -220.355)
(211.285 -706.056 107.94)
(-723.935 19.2105 404.04)
(-80.1273 -260.083 -631.416)
(-535.49 -63.7404 88.8139)
(-375.067 262.056 96.9073)
(-431.331 -49.9969 161.654)
(-188.108 -352.604 13.6207)
(-652.638 563.916 247.475)
(310.788 214.834 560.164)
(464.855 47.2341 237.281)
(-221.353 108.459 341.656)
(-1300.68 -443.297 -326.785)
(-628.424 294.4 -509.588)
(-136.168 -655.881 -332.476)
(-1247.77 787.526 -677.178)
(-197.014 -269.545 28.1634)
(226.725 -401.772 -376.696)
(-353.353 -515.265 467.309)
(-297.649 577.886 833.323)
(-522.227 382.526 -676.554)
(-956.914 320.398 1077.89)
(72.3517 50.097 745.438)
(-964.453 -340.98 -881.385)
(476.089 -59.068 -55.1444)
(-412.112 -361.551 814.192)
(-84.68 16.4282 390.019)
(132.026 -800.246 -723.34)
(-375.972 324.772 -260.239)
(-461.932 83.53 -348.985)
(-1225.28 281.281 -271.997)
(-677.549 -328.529 -935.201)
(-124.28 -40.0574 535.707)
(437.033 3.59426 -190.836)
(982.623 -666.784 -149.642)
(-1047.77 -304.463 -203.708)
(602.636 59.157 125.825)
(270.806 387.062 252.085)
(570.625 -420.165 -80.4554)
(-1232.72 729.144 844.248)
(239.418 71.5911 -438.049)
(-28.8901 1206.38 -1186.2)
(-125.176 -69.2323 450.517)
(490.548 -32.1849 48.9418)
(-181.969 -38.4446 -207.899)
(-322.338 441.432 -130.003)
(646.146 716.831 1037.6)
(-68.8616 -759.688 776.653)
(-172.487 790.247 -35.6423)
(-508.875 173.668 -309.836)
(263.036 -747.147 393.444)
(-110.046 -485.419 365.296)
(-46.235 -373.569 583.714)
(-542.524 -147.144 201.302)
(437.574 64.8901 -507.381)
(275.698 -340.079 150.61)
(236.237 -242.934 476.011)
(-182.299 301.699 164.454)
(398.045 -13.4142 395.372)
(-74.5705 -182.321 -533.882)
(-743.907 259.016 90.8376)
(445.239 -300.946 -969.192)
(40.4563 -520.603 383.989)
(578.345 100.177 -715.812)
(-225.974 542.596 -96.5653)
(199.526 363.231 -265.991)
(332.185 -621.564 128.551)
(890.392 -356.762 471.833)
(-52.6611 196.352 239.535)
(-241.811 195.648 -762.394)
(-36.7331 -749.223 -406.116)
(559.902 -428.164 -134.33)
(-251.041 505.401 -1337.03)
(-180.187 -110.83 370.184)
(749.02 -214.555 -99.0838)
(-390.843 -591.257 293.581)
(282.155 -211.302 -527.759)
(326.839 419.714 -407.647)
(325.324 433.844 -535.483)
(225.807 -1634.99 279.477)
(264.551 76.6626 -425.684)
(238.765 827.597 332.199)
(93.7156 144.117 354.717)
(277.31 631.771 519.926)
(580.89 -61.0318 -464.91)
(243.684 -350.748 163.872)
(-355.827 -268.486 288.544)
(-713.824 -694.043 202.431)
(-68.7958 -2.35097 -301.5)
(-210.409 1313.99 -788.745)
(-33.0616 406.837 -959.917)
(-450.497 283.7 41.2464)
(-310.02 241.651 -606.759)
(-1518.25 172.492 330.384)
(-626.865 -54.7473 336.031)
(-181.01 -281.602 -427.346)
(176.57 40.2625 430.85)
(581.314 88.0227 -403.595)
(287.631 -1339.05 606.694)
(672.705 592.482 508.001)
(-923.26 66.4889 245.859)
(-97.4984 -424.677 559.489)
(-339.555 -388.408 236.42)
(-326.562 -489.026 472.713)
(643.501 -42.1076 487.564)
(310.615 -436.007 292.512)
(-746.883 -549.791 -139.038)
(-799.042 208.697 211.249)
(-352.266 -547.309 320.189)
(175.108 515.268 451.312)
(-140.248 26.489 731.712)
(-380.166 560.029 -158.139)
(421.655 497.021 319.528)
(1023.95 -455.569 488.038)
(81.7667 -753.44 -1205.52)
(-786.693 457.765 -588.776)
(43.2806 687.273 -879.664)
(-1257.6 412.48 -446.908)
(461.059 -636.631 -47.2029)
(29.0238 -156.822 798.839)
(-204.752 219.485 651.25)
(-566.116 -524.725 542.016)
(682.835 -814.084 608.658)
(486.024 -93.837 -33.8146)
(504.135 -116.544 120.428)
(1124.04 474.016 569.447)
(604.986 -98.8505 40.6136)
(-204.117 -73.0328 431.516)
(-223.271 965.437 -173.677)
(82.1798 -98.211 431.307)
(-323.324 -325.076 -49.9229)
(43.6963 -680.693 -633.056)
(386.194 -269.408 67.5747)
(150.094 663.612 1001.54)
(-839.996 165.283 145.362)
(586.733 160.51 787.75)
(-260.622 -13.4749 -687.895)
(-756.627 1141.19 -234.1)
(1268.19 -196.113 -613.409)
(-99.7582 1423.6 -773.954)
(-132.02 -764.004 299.698)
(-821.547 -3.31538 -148.995)
(676.469 -778.197 631.138)
(594.68 -220.432 -150.361)
(717.017 -566.447 -40.291)
(-236.767 -356.626 -76.3608)
(1350.85 -475.296 346.199)
(-197.568 116.815 -77.7125)
(731.397 129.659 1006.69)
(-354.915 55.7655 -117.508)
(-413.922 354.007 629.043)
(1143.13 -589.539 351.605)
(-202.517 764.49 -758.604)
(-946.423 273.833 100.966)
(-603.049 197.311 -298.06)
(-842.616 657.279 407.19)
(252.071 788.896 -869.173)
(1.49336 -177.696 750.923)
(257.636 -216.496 455.061)
(-777.012 -449.065 -605.178)
(180.618 223.135 565.538)
(-291.51 -161.555 440.687)
(-116.807 385.647 250.488)
(848.721 615.603 -784.033)
(-178.966 844.077 -263.903)
(-818.627 -158.783 5.48633)
(-40.2643 155.469 316.651)
(-805.32 99.0386 450.106)
(-254.919 -266.369 -422.034)
(-548.234 1135.35 894.642)
(-761.51 656.61 -447.771)
(-112.477 794.145 -13.8592)
(852.045 -707.829 582.547)
(777.449 -275.754 -5.36326)
(-84.7043 -424.099 -206.285)
(-91.3365 -443.927 -301.852)
(640.565 310.722 -179.32)
(-134.939 177.081 -31.6427)
(-898.179 578.35 1111.63)
(436.011 -5.37574 -175.269)
(602.129 415.777 -362.9)
(674.287 -331.077 -182.441)
(61.3442 537.585 -25.7004)
(-237.974 250.237 -642.819)
(-280.179 -328.993 -671.361)
(-335.484 1113.79 499.663)
(-44.9426 -1243.69 737.801)
(-734.707 -431.993 137.147)
(335.044 -289.846 -53.4699)
(-494.459 -48.1182 -47.4866)
(-767.429 -1007.01 -701.412)
(93.2209 272.537 294.249)
(-389.645 527.895 203.127)
(-610.122 552.201 13.1754)
(80.6769 16.4795 0.151954)
(226.562 -900.374 -957.339)
(-385.714 869.473 252.154)
(-419.129 -1118.6 -85.5244)
(-115.777 471.009 -34.0309)
(-786.341 190.024 24.622)
(-62.4916 350.418 -288.132)
(1118.92 72.4221 -132.521)
(-606.544 326.565 127.533)
(-19.3082 -129.97 -1556.52)
(46.8756 91.8469 557.687)
(41.793 121.656 163.268)
(-155.514 -127.34 -60.677)
(249.309 726.975 -62.1318)
(-185.752 -311.077 110.783)
(-534.531 -422.826 -367.048)
(828.162 -432.814 245.885)
(-153.184 997.912 -370.005)
(5.63688 -230.143 -240.921)
(378.352 -485.82 177.552)
(1172.08 -603.039 743.783)
(604.2 -607.142 550.827)
(-681.877 -93.0359 703.369)
(47.8123 331.469 463.001)
(-205.943 -659.687 661.652)
(284.636 155.341 -264.111)
(244.299 -346.214 693.622)
(-424.333 -6.12898 -336.737)
(662.52 -1027.16 218.778)
(383.537 490.975 472.943)
(-105.189 209.895 -339.165)
(-562.092 704.809 -853.407)
(73.1057 -788.391 545.697)
(69.7177 385.542 131.169)
(-114.172 141.631 273.496)
(372.956 221.582 -749.74)
(-307.042 682.743 360.517)
(-568.561 -117.525 383.378)
(793.32 -1079.77 -355.518)
(197.797 105.261 202.883)
(209.595 308.066 495.437)
(92.8182 -288.993 251.186)
(165.674 38.002 309.478)
(167.647 198.108 592.309)
(-102.477 -674.47 -159.572)
(-380.66 -194.716 392.178)
(169.661 -423.089 -410.923)
(-593.009 -168.433 227.951)
(-292.418 -518.114 -739.194)
(507.593 -653.557 -123.474)
(-23.7093 171.898 -19.7649)
(-628.434 -460.364 128.964)
(704.004 535.316 -201.324)
(-798.655 296.131 -148.276)
(-833.123 -101.03 -165.903)
(-360.148 -235.567 -128.921)
(689.629 362.127 324.449)
(-566.215 799.855 -241.197)
(-579.928 -1190.92 -47.1896)
(-175.698 764.628 202.689)
(124.412 447.014 860.948)
(419.082 160.245 -679.5)
(146.795 469.289 -860.53)
(-850.979 248.367 -89.2557)
(587.401 159.529 568.02)
(-515.248 -206.765 -41.6215)
(235.965 -62.3135 -487.991)
(981.397 -189.568 -142.523)
(388.041 -583.45 37.867)
(-98.5359 -3.17968 662.247)
(-137.815 -1281.75 506.24)
(-817.588 -750.398 440.62)
(-538.229 6.54257 105.431)
(749.583 -491.771 -484.401)
(178.15 1014.24 -219.502)
(525.946 648.34 646.564)
(148.873 328.004 500.364)
(-846.938 96.4979 177.028)
(-362.272 -275.663 703.568)
(-290.965 122.637 -1282.27)
(-835.328 47.8539 -145.465)
(106.496 1079.82 -144.52)
(-17.5558 -246.805 -403.06)
(-116.335 -693.895 -327.299)
(-250.438 442.314 -628.022)
(71.4019 -249.845 -382.559)
(1015.68 667.417 466.694)
(292.829 0.267557 -266.784)
(-169.073 -666.413 -268.229)
(794.416 585.753 -67.0416)
(150.006 -160.641 -174.897)
(408.379 -781.377 604.746)
(-253.616 495.694 232.483)
(-133.743 -240.273 311.787)
(-154.741 -618.353 222.634)
(-223.65 174.71 -322.785)
(323.854 16.673 -44.5726)
(-377.756 64.2131 142.527)
(-778.431 77.1138 1171.95)
(-4.25324 -225.717 1104.47)
(297.394 61.7619 687.282)
(679.708 -8.58999 734.125)
(-61.0763 -77.7006 87.5809)
(360.591 -689.889 122.281)
(-812.733 -799.549 125.143)
(427.631 682.149 173.374)
(845.564 624.961 185.229)
(694.986 526.92 4.46205)
(-517.034 -322.236 -173.39)
(-1016.51 -715.593 -247.465)
(-80.6303 243.17 475.738)
(-137.621 79.7714 -76.9514)
(-560.736 -148.787 -40.6622)
(-489.246 96.1559 461.819)
(376.616 -111.414 366.99)
(521.086 324.521 229.445)
(269.227 58.5944 -432.594)
(90.0363 78.4769 269.229)
(884.131 1362.38 437.834)
(-345.849 -693.644 -360.81)
(7.01957 -166.465 535.83)
(761.903 1248.36 -160.276)
(-23.9491 172.492 557.277)
(-407.491 1006.08 653.494)
(-252.651 439.509 19.7273)
(-334.75 868.412 407.092)
(-487.568 33.2652 899.033)
(-476.845 -268.765 877.339)
(698.448 -413.25 280.347)
(-95.1829 1390.37 25.3485)
(-412.872 543.388 -44.0588)
(-363.931 343.749 521.609)
(268.293 -675.682 364.278)
(194.586 404.417 -745.679)
(555.615 -194.897 -140.741)
(-854.815 -915.048 -143.296)
(747.601 -167.059 122.489)
(-470.519 -1377.07 155.825)
(6.03866 721.152 729.274)
(166.194 1042.24 345.598)
(-299.607 -404.14 594.884)
(-112.649 73.9658 -483.253)
(-367.13 -862.323 -304.106)