/*--------------------------------*- C++ -*----------------------------------*\
  =========                 |
  \\      /  F ield         | OpenFOAM: The Open Source CFD Toolbox
   \\    /   O peration     | Website:  https://openfoam.org
    \\  /    A nd           | Version:  7
     \\/     M anipulation  |
\*---------------------------------------------------------------------------*/
FoamFile
{
    version     2.0;
    format      ascii;
    class       dictionary;
    location    "system";
    object      setFieldsDict;
}
// * * * * * * * * * * * * * * * * * * * * * * * * * * * * * * * * * * * * * //

defaultFieldValues
(
    volVectorFieldValue U (0 0 0)
    volScalarFieldValue T 900//348.432
    volScalarFieldValue p 1129.9//100000
);

regions
(
    boxToCell
    {
        box (0 -1 -1) (5 1 1);
        fieldValues
        (
            volScalarFieldValue T 300//278.746
            volScalarFieldValue p 109.1//10000
        );
    }
);


// ************************************************************************* //
