/*--------------------------------*- C++ -*----------------------------------*\
  =========                 |
  \\      /  F ield         | OpenFOAM: The Open Source CFD Toolbox
   \\    /   O peration     | Website:  https://openfoam.org
    \\  /    A nd           | Version:  7
     \\/     M anipulation  |
\*---------------------------------------------------------------------------*/
FoamFile
{
    version     2.0;
    format      ascii;
    class       scalarField;
    location    "0/lagrangian/dsmc";
    object      Ei;
}
// * * * * * * * * * * * * * * * * * * * * * * * * * * * * * * * * * * * * * //


5228
(
5.47309783668574e-21
5.57061865270693e-21
1.88754677353872e-21
7.54680113059275e-21
2.84310262958966e-22
1.15226277676411e-21
1.55502233046442e-21
3.35615136849422e-21
2.4067768390575e-22
1.62162361749884e-21
1.15869360559352e-20
2.56721269572141e-21
2.46076958578095e-21
6.52089283569013e-21
8.89176749794152e-22
3.96533132812119e-21
1.65385486863237e-22
7.79008777126135e-21
7.31702434379529e-22
2.86262319768982e-21
1.66113249597706e-22
5.90353677759661e-22
5.57769372130729e-22
8.07440948762702e-21
6.19987483671667e-21
3.23118862928896e-21
1.53313270969855e-20
1.38642991512916e-21
1.45152087635167e-21
5.16937779959331e-21
2.49021289379005e-21
1.68014276602557e-21
4.37778009178411e-21
5.96638039958263e-21
3.87415836645869e-21
7.56548776172647e-21
2.46265765603911e-20
3.30105971198304e-21
2.58878657375266e-21
4.90521386459819e-22
3.69534580597008e-22
3.21133083063644e-21
7.00001553134487e-22
7.61621969336054e-21
6.3896674455177e-21
1.93591245581126e-21
2.70129398995882e-21
2.93373897316631e-21
1.64334009162738e-21
6.71905226928059e-21
2.82185351689744e-21
3.82263999146321e-22
2.17327506711345e-20
6.01833013152365e-21
8.09999870467432e-22
2.85202960046093e-21
2.14622111509151e-20
8.88616503908377e-21
3.08663833489001e-21
6.97337064542077e-23
5.7047692860883e-21
1.07766606972982e-21
2.69251762436775e-21
4.29515721369108e-21
3.16641185026873e-21
1.11869913081634e-20
2.71507092810078e-21
7.86430125753806e-21
8.14553322967312e-21
9.59880778124471e-21
1.75061101308981e-21
1.16616909310876e-21
1.04579510868775e-20
6.60298791844264e-21
6.08541184206903e-22
1.80130358766787e-21
6.09724181679973e-21
9.96012389490093e-21
1.73144761034982e-21
6.85483013248278e-21
1.32489551052904e-20
3.3220431331859e-21
2.59270251734785e-21
2.90972888680454e-21
1.35869759995404e-21
1.23265742926406e-20
1.86760383960113e-20
1.24086152474813e-21
5.99681503251974e-21
2.92361478604425e-21
6.75746288110143e-21
4.23176789045993e-21
4.67776944624747e-21
1.10010160514956e-20
3.54364118386606e-21
3.22535050763079e-21
3.11476106917933e-21
1.01108193135156e-21
1.68714889900802e-20
6.50512213916518e-22
2.77725876126594e-21
4.56393036481663e-21
1.31528636308876e-20
5.97064698902248e-23
7.33529381615022e-21
3.67485738682692e-21
2.24759208795748e-22
2.7341513055494e-21
5.12872226214423e-21
6.47486044423325e-22
8.89483205410676e-22
7.01989955137276e-21
1.75516517679733e-21
2.02935959974353e-21
6.8459893774981e-21
3.49771201047551e-21
8.96877166765504e-21
6.69222185412252e-21
1.14432008263075e-20
3.57436593222903e-22
1.35718498655156e-21
1.49548552577609e-21
1.84328140124942e-21
6.42877702218668e-21
5.07855290010538e-22
3.74155583232803e-21
9.18554590815346e-21
5.0287123664849e-21
5.90572310791674e-21
1.7348958565482e-21
4.85946166992314e-22
6.40600503483217e-21
2.65035254497989e-21
4.82747962936337e-23
2.6309122485835e-22
5.30791462746326e-21
1.95943514174701e-21
2.27211541108575e-22
1.84601247758137e-21
2.58798385767613e-21
2.19427111981866e-21
5.83150174928059e-21
8.86516724317232e-21
9.27925010976285e-22
5.25296863239826e-21
9.9921965242148e-22
1.27455341449906e-20
2.70712782513918e-21
1.05604208772129e-21
4.65923724560802e-22
5.41107542063714e-22
7.15808004870715e-21
5.99564603028275e-22
7.99876835475742e-21
6.81224926431568e-22
1.15741036646889e-21
2.63022110111484e-21
1.6460948375087e-21
2.84828537461895e-22
3.24680939832398e-21
1.36581775043326e-22
3.55714823178749e-23
4.96743674564721e-21
1.7790221486676e-20
1.00622899075814e-20
8.35554216686059e-22
1.87329776054176e-21
3.34083088295868e-21
1.6840959022719e-20
1.37523948170967e-21
1.44578826943912e-20
1.08853800201031e-20
1.27015685643921e-20
3.4215990288627e-21
5.12394779394527e-21
1.28571128712453e-20
4.18704484947179e-21
8.7358606676251e-21
1.27521787344477e-21
1.12232425172264e-21
1.99261964333846e-21
9.53087256503901e-22
2.13314852132507e-21
3.61130353630131e-21
2.83647059051707e-21
2.18605063312446e-22
1.49046129508222e-21
2.00690073247789e-22
7.43453485769965e-21
3.81514250081037e-21
1.21139988054364e-22
1.62620646829655e-21
2.3591777380207e-21
1.26682593052646e-20
6.91750899291577e-21
1.69985213962772e-21
2.29037884419113e-21
1.72413383607114e-21
1.26896044001394e-20
1.18314997549042e-20
1.30940265795705e-21
2.01075594301395e-21
4.02002571146014e-21
1.20496959890355e-21
3.06169248562419e-21
5.85878203893187e-21
3.50702307968057e-22
1.12206818025268e-20
1.76187825628691e-21
7.62428139882638e-21
1.66831861047367e-20
1.15069108314398e-22
1.65428202415248e-21
5.75424296369053e-22
3.51924106283172e-21
1.88054925406091e-21
2.77536222483275e-21
3.06914332964226e-21
4.12531870813401e-21
2.68831391043139e-21
1.26323882749878e-20
2.56692025462052e-21
8.86117488581251e-21
4.78619494009239e-21
7.66271441004339e-21
1.22231291663893e-21
1.67214750468311e-21
3.24653849595401e-21
4.1001678772328e-21
3.87824534867256e-21
5.15936990756802e-21
4.51003839520676e-21
1.16528936755615e-21
2.01240004913692e-21
2.33117838012442e-21
7.74842183969376e-22
2.18114050243079e-21
7.54615863344335e-22
3.28921973655151e-21
1.41439115127069e-21
6.89217001411587e-21
2.75095256809664e-21
8.25013668898699e-22
2.97828696185725e-21
1.15721683328419e-21
1.6858538902533e-21
1.1198901805798e-21
2.06934389302808e-20
1.92876705623484e-21
1.99620149471045e-21
4.95806774072077e-21
9.92007443218139e-22
9.08158445015252e-22
2.82913096920242e-21
1.08538005246053e-21
1.95069219315129e-22
1.42547797431775e-22
4.33385611561093e-22
1.43248537085596e-22
1.48450034797117e-20
1.10470196312796e-21
4.54531338719119e-21
6.07128800904129e-22
2.66406934208035e-21
4.66266245901958e-22
2.04951981530151e-21
1.61203769508277e-20
1.38692785241627e-20
7.33544055899958e-22
2.41939591514974e-21
6.20039690403853e-21
6.90773499282632e-21
3.40298188315579e-22
1.25205064852275e-20
1.44019854233916e-21
6.92725533131202e-21
1.16846574480423e-21
5.97596640115592e-21
8.74697173927437e-22
6.33863867012548e-21
1.42106591535612e-21
1.37791579251904e-20
4.01041324036952e-21
5.93279637466763e-21
2.3804145884737e-21
1.6436195646892e-21
4.41820624856473e-21
1.48430359237025e-22
2.57830722853867e-21
2.88482939709571e-21
3.8638973973776e-22
1.30159704202958e-21
1.46642230946733e-21
9.38156483140102e-21
5.34400651771347e-21
2.74518996610915e-21
2.9577947320922e-21
5.46347643776891e-23
4.28816135556251e-21
4.04864576180421e-21
4.59335297782965e-21
2.48704855272073e-21
1.18402070277942e-21
2.0389032543177e-21
5.44319011327302e-22
8.13195911282966e-21
2.9938022493584e-22
2.59016697982189e-22
1.791637364386e-21
1.14495370758583e-20
3.87262532455062e-22
4.25141612483959e-21
2.57478315884007e-21
5.91531585675277e-21
2.576862748639e-21
1.41318366940288e-20
5.17222357828883e-21
2.8706519374185e-21
1.05146736306785e-20
3.21397671600181e-21
3.4608517884828e-21
1.46031360806948e-21
1.99926637470925e-21
1.75760184255831e-21
2.66372129867049e-21
4.85739416468264e-21
8.97572587396311e-22
2.02861852604483e-21
4.51488570633462e-21
1.33155771757553e-21
3.55109203179272e-21
6.4157027323984e-21
2.19425302661092e-20
1.22359095953091e-21
1.76845026685007e-21
6.45670765057514e-22
6.92483655109199e-21
4.0277436509896e-21
2.58621218236292e-21
9.63324651188323e-22
2.8084949975113e-21
8.36835791413644e-21
5.43963046417154e-21
9.50935829811481e-21
5.47643766366111e-21
7.27160914981325e-21
4.7496104388109e-23
3.0097749274198e-21
3.36102063846975e-22
2.8773647666949e-22
1.00759473063847e-20
5.85217922514846e-22
5.46942074762325e-21
1.44488943032492e-21
6.98335685533273e-21
7.16334370030454e-21
3.68429511617181e-21
1.03381374172974e-20
1.14726659419306e-21
5.43125269412551e-21
1.79897681227989e-21
3.09689102290467e-22
1.9806987929168e-21
4.46109786733754e-21
4.51151345590918e-21
6.71762710823851e-22
3.17154430863744e-22
1.60221773197086e-21
3.06246827353352e-21
2.68671640020146e-21
1.8567760688515e-21
2.13354154072077e-22
1.76977856457688e-22
6.7264007071019e-21
1.08438754178097e-21
1.07418300882395e-21
3.88667793872951e-21
6.51753640381951e-23
8.6308907293356e-21
7.10957424131822e-21
2.19059738289773e-20
6.26507833641412e-21
4.72235877355889e-21
1.05921698105235e-21
6.54541209689373e-22
3.04577507726887e-21
6.57684836097888e-21
2.64137885149115e-21
3.17720031223489e-22
3.74541297033419e-21
2.46834260699845e-22
3.57856632711005e-21
3.70504008733489e-21
1.80181420477024e-21
4.39552749145532e-21
3.70855986620795e-22
3.47184886409391e-20
1.87840085571285e-21
8.51306871291522e-22
9.64091624865177e-21
9.67119312843238e-21
5.70088065066579e-21
4.2172398363628e-21
4.03445872561099e-22
9.00943444010033e-21
1.3912065430995e-22
7.69715963127379e-22
2.93203808025829e-21
1.98155036306364e-21
7.52617868174344e-21
1.56801807671448e-21
6.35728505221421e-21
1.02530536504339e-20
2.16043022300063e-21
2.39840479762443e-21
2.06329325976335e-21
9.803564928193e-21
5.26935184236447e-21
5.32428670582816e-21
4.7650106703025e-21
1.78077057773121e-21
8.14304631009863e-21
1.89904240827178e-21
1.90704170383714e-21
5.0630236751883e-22
1.8152038744331e-21
9.17601514434887e-23
1.70568306590071e-20
9.2645440657198e-21
4.35532348323539e-22
1.47555448295468e-21
1.98002137724252e-21
3.80000732760364e-21
3.00909771744879e-22
3.01500984942206e-21
8.38115180177705e-23
9.68703962005349e-21
3.62913497153718e-22
5.46543328504131e-22
5.02218215825022e-21
1.550543200803e-21
1.70225369694091e-21
2.63221123501599e-21
3.53265487239007e-21
1.69299973145972e-21
2.83786759473337e-21
1.21803910018294e-20
8.81052843758082e-21
5.97706091456209e-21
6.75495226497634e-22
8.58847333760953e-21
1.44730454661347e-21
7.94956707352765e-21
6.83236103030418e-21
4.26138058184921e-21
1.36243216611008e-20
1.21440725058894e-21
2.04860437056805e-21
4.57309737862463e-22
2.54895614418127e-21
2.6663505537219e-21
2.40483560553848e-21
4.52897826782089e-21
7.80929466458997e-22
3.95811919739499e-22
5.25778406467347e-22
8.3089812449067e-21
1.09009145486114e-20
5.06326524517756e-21
5.17256860984508e-21
5.16975807976575e-21
9.58629201557585e-22
1.82356759579633e-24
2.8507038322817e-21
1.29679569296259e-20
1.74784143779529e-20
7.36797269297973e-21
2.65034614807806e-20
1.33041286118787e-21
2.93136176778007e-21
1.16355323835104e-21
1.25920865221382e-20
4.50181838199899e-21
2.42823507958423e-21
1.18450953620755e-21
1.02805867940295e-20
1.79340636254398e-20
2.20383779291917e-21
5.2380269364915e-22
1.63964376768271e-21
3.54242712937455e-21
6.6510279168651e-21
1.08883651438751e-20
2.05839666088272e-21
1.03815084900857e-21
3.68359264447258e-21
6.0311782350947e-21
1.3422876463932e-21
1.54021670965189e-20
3.25188609377664e-21
1.17621832361207e-21
3.17074210648379e-21
2.38048707270896e-21
2.66291159614033e-22
1.14574026884523e-23
7.50305548378161e-21
4.87004822579969e-21
9.09306571647369e-21
4.94380884713265e-21
1.7475954472763e-22
1.87645533456307e-20
1.13779630027574e-21
3.87387523498364e-22
2.13482405425701e-21
1.07999176212326e-21
1.46602777496287e-20
1.53041404773096e-21
1.24010753575415e-20
4.83084682034882e-21
3.72677157307979e-21
7.93113868467869e-22
1.0193237210378e-22
3.30150787970119e-21
5.28034017314464e-21
2.35578496320348e-21
6.88548791360788e-21
2.81048257396708e-23
5.92989489427203e-22
5.04355424860461e-22
6.28399181812918e-21
1.7064178217674e-21
1.92168035917687e-21
2.86270023891507e-21
1.13749699992786e-21
2.54442975951981e-21
8.53286258947711e-22
6.96010449646712e-23
4.78342903266094e-22
2.72255764001717e-21
2.92484460635957e-22
5.7013748628135e-22
3.05000364087069e-21
2.28801161899116e-20
8.93817609620955e-21
5.15579685491112e-21
4.76824438997793e-21
2.52615554219109e-21
1.00390816371628e-21
1.54214972570786e-20
5.91441748630074e-21
7.80389428437783e-22
2.24789266635259e-21
2.07042690544679e-20
1.7095895754777e-21
7.10215834011945e-22
4.56246175947614e-21
2.88387235902926e-21
1.16429719184498e-21
7.4836730243055e-21
9.08777506806527e-22
1.31738636172214e-21
2.59356166891155e-21
1.67222254456821e-22
2.13918497627565e-21
2.44032267989989e-22
5.61607874126448e-21
6.7191722848668e-21
1.20459353147091e-20
7.44976258358679e-21
4.82959469260784e-21
1.2257239262054e-20
1.16796030089415e-20
1.7228986170418e-21
7.51985127646507e-21
3.99871227107768e-22
6.6389667129533e-21
7.97730131782249e-22
1.7763305983112e-21
1.74625655750923e-21
6.44709719152375e-22
2.35926002046106e-22
3.09585093114588e-21
2.96338419568298e-21
1.02381212240166e-20
2.45548334657742e-21
1.0389802110928e-20
4.98941205313884e-21
8.91409350225847e-22
3.76997198271675e-23
6.45561845595446e-22
4.16275261293413e-21
1.0182803214196e-21
1.45562633710794e-21
4.16288136382561e-22
1.00118891239498e-20
8.55275636180728e-21
1.90734169804295e-21
1.10951655352079e-22
2.18157138534763e-21
3.03556152699009e-21
4.02918003888153e-21
2.72247161360924e-21
9.41539208408798e-23
9.93037010921189e-22
6.90902941787957e-22
5.03013191502193e-21
1.30848064688048e-22
2.238830289094e-21
9.55924176793289e-22
4.33111578482431e-21
4.39864861949323e-21
9.07818313005579e-22
1.51715546957791e-21
2.19144214518753e-20
2.18593264194582e-21
4.75796079701113e-21
1.07812580515326e-20
2.21600102027067e-23
9.59337194187696e-22
3.81305347132312e-21
1.24500597400064e-21
8.32940635107005e-22
1.03455578222859e-20
3.20396268129873e-21
1.22183155414702e-21
1.28377724796325e-21
3.73827271759011e-21
3.8527362445662e-21
8.6451799399216e-21
4.07369840472717e-21
5.42701143770842e-22
3.62255867881638e-21
1.1870936565607e-21
2.53897856658674e-21
2.64108000298022e-21
2.02326608045901e-21
7.18428537015938e-22
2.67147555505838e-21
1.71338808288303e-22
8.20964568616249e-22
1.13053019721965e-21
1.01499033534757e-20
1.33082307259415e-21
2.89452120442916e-21
3.51726620296629e-21
1.81119709888469e-20
2.85561153931061e-21
5.05025259816466e-21
1.8726488534189e-21
4.47748812727716e-21
4.84887481760758e-21
3.57103540633559e-22
5.71287884711716e-21
2.02329595207053e-22
5.15100278838316e-22
3.58578297580034e-22
8.80244831994908e-23
2.50868820144308e-21
1.32170567001828e-20
5.64636877652438e-21
3.06427537838532e-21
9.74297133888827e-22
1.39877045858347e-21
7.01307273611557e-21
1.79072110683433e-21
3.01588073827088e-21
3.89087118613433e-22
3.46542257330475e-21
2.54821806652122e-21
4.91388378414369e-21
1.54631202189833e-21
4.24309212412676e-21
2.26471051343447e-21
2.40474489452373e-21
1.73134235921126e-22
1.74515101327271e-21
1.4561204394534e-21
4.57609577775995e-22
7.6856662755478e-22
7.75218609284958e-21
6.64132048629748e-22
1.38661626778929e-20
2.26892914409712e-21
1.18861776701355e-21
4.67128113528736e-21
3.77331108237786e-21
2.07748599787373e-20
4.70747460863946e-21
4.20044558335368e-22
7.36078741711333e-21
3.95335610537359e-22
2.59161865980498e-21
1.84825152891078e-22
2.93389319542742e-21
1.02902364821445e-21
8.08879175197353e-22
4.59898449085663e-21
1.20114576662062e-20
1.07504493184146e-20
2.64580320787734e-21
4.93236127834988e-21
3.3443337970031e-21
9.32534096271399e-21
2.2691120947147e-22
1.5228817913856e-20
4.32820396116125e-21
1.80244607274506e-21
1.23280204763833e-21
4.73545764831088e-21
5.83890846333486e-21
1.82042737984055e-21
1.56665621760986e-21
3.31966669127525e-21
1.64530308600118e-21
2.32089095722538e-21
2.06650098719404e-21
2.42587423268564e-21
7.08214975234511e-21
1.93895748801538e-21
5.91664344227956e-21
4.42486429942656e-21
1.45674844259019e-21
5.35140851250506e-21
3.50842769037559e-21
2.17049535339696e-21
8.18160603217007e-22
8.88390374936555e-21
3.46729613213302e-21
5.27622160379428e-21
3.18677645902335e-21
7.69897500215216e-21
2.95631149954855e-22
3.83192481404544e-22
3.91936244920868e-21
1.06641025036075e-20
5.02047303131598e-21
3.11537861354995e-21
1.86693092532565e-22
3.55257657694695e-21
3.65267611144841e-21
1.2403854473407e-20
8.12271304357682e-22
1.99303899896278e-21
1.95287722507784e-21
3.67529624652054e-22
4.27081549829626e-21
4.0203811301946e-21
1.10084779741534e-21
6.99246276575035e-22
6.23388743045566e-21
8.5653432832822e-21
1.58450202629994e-20
5.75153524969567e-22
3.049101225312e-21
1.1663827915171e-20
5.16281873079562e-22
1.04672242962813e-21
5.12506747725007e-21
3.11692016343906e-21
5.93046649486016e-21
8.90795491724542e-21
5.64703072046936e-21
3.06805229803579e-21
1.90407948336246e-21
4.31236376031522e-22
5.10918522234639e-21
6.40859554947215e-21
6.27411086609084e-21
2.99840297645004e-21
1.23839966599001e-20
3.40572098113492e-21
6.39117240206769e-22
4.24556933446569e-21
3.48549231892686e-21
1.82587273177151e-21
1.1323677554868e-20
4.54480397001682e-21
1.28896149019785e-20
4.47905505630412e-22
1.76206598722192e-20
5.80387467625591e-21
1.05431939129888e-22
9.23506725937287e-21
7.696970286331e-21
6.16776473660354e-22
1.19664495541152e-21
4.62093108500025e-21
1.8026902191957e-22
1.51584516111238e-20
2.91303934200613e-21
5.72064890841522e-21
2.94283314425733e-22
5.05675000598889e-21
3.61113421285008e-21
9.92648207670018e-21
3.66674688846749e-21
1.47289915086192e-20
1.25025505440754e-21
2.58867713541102e-21
1.21782309700958e-21
8.61105093296292e-21
1.19000407125034e-21
1.81056917326144e-21
1.72576053521992e-21
2.24765770992997e-21
5.17985946256732e-21
1.45396651951906e-21
1.10908793673931e-21
7.89229914309439e-22
5.64578035679743e-21
7.54323857000743e-21
1.08665886471544e-20
2.82940033462621e-21
2.2229581552908e-21
1.47875280525709e-21
3.78930207119938e-21
5.51139238529962e-22
1.32644196746636e-21
2.55709236549284e-22
2.45324536316001e-21
2.25103762424351e-21
1.60276767552065e-21
5.55160424861062e-21
2.18324600868739e-21
1.02718898802633e-20
2.82470969185113e-21
3.00817385250702e-23
7.92899071814467e-22
9.50852108082475e-22
9.31835986233342e-22
4.91108720166472e-21
2.28531336287186e-21
4.92887786382449e-21
6.68570366030789e-23
1.15974925684057e-21
8.80555618712841e-22
5.0160244072734e-21
1.64848540440818e-21
1.1945458450301e-21
1.28068643757917e-20
3.53448224018479e-21
1.26878936416824e-21
8.52531492085045e-22
2.69624122085383e-21
4.90267507998225e-21
9.88763390791751e-22
1.53488845441489e-21
2.57518011356528e-21
2.86813044158686e-21
5.77894302357632e-21
2.43926393634146e-21
2.76393174196941e-21
2.53638140550557e-22
6.19961170381162e-21
7.2040205855793e-21
7.04124396380925e-21
2.03839619727373e-21
2.97414026148134e-21
2.29786845101474e-21
1.13322889505177e-20
4.08394700694417e-21
3.15350169589381e-21
4.2541307922591e-21
2.15250029017177e-21
4.91591328556421e-21
1.36381333881723e-21
2.4517520191039e-21
5.83215684772641e-21
1.96276065808223e-21
1.01284212711343e-21
7.24279493906689e-21
1.91657184561519e-21
8.29176545592772e-21
1.58557381626111e-21
8.25323846648034e-23
4.9810763726585e-21
5.21686426228203e-22
3.62309467936123e-21
5.39955783004184e-21
8.32774029400962e-22
3.57342392796038e-21
1.75035099445746e-21
2.26582319693011e-22
6.2403090582572e-22
3.5836907435381e-21
1.09013125674031e-21
4.41562196405139e-21
1.59015304027859e-21
5.97081969597425e-21
7.97965330223887e-22
1.98175414164648e-21
1.06583835822518e-21
1.87613052295027e-21
1.18089383556055e-20
1.87054022611002e-21
3.11574643762958e-22
1.70467677576639e-21
2.23284314538427e-21
1.57325492378763e-21
2.6974185164148e-21
8.673308216436e-21
1.14372996663374e-20
2.72362189146362e-21
1.06811753589698e-21
3.11901646403524e-21
2.05989003826901e-22
2.25812497289768e-21
3.04411416248989e-22
2.24670404629349e-21
4.19353614098651e-21
2.89043487611636e-21
8.64804617822836e-21
9.45454965925551e-22
8.61266105938783e-21
6.63228416814071e-21
3.29692445369777e-21
1.00471234395115e-20
4.2812243578212e-21
8.07329139483129e-21
4.62472366944662e-21
1.69780324390434e-21
3.72870971623504e-21
8.57365129344493e-21
3.01384590955171e-23
4.39798654734426e-22
2.29878842084368e-21
6.00978084731043e-21
6.97463664926664e-21
7.53594194419818e-21
3.45850998460965e-21
4.56711537864862e-21
6.3168348306397e-21
7.85791133125501e-21
4.90898354698797e-21
7.13861592792307e-21
1.06507165582538e-21
1.55401788989825e-21
3.74504983860064e-21
6.51908365473731e-21
1.46324989251357e-21
2.5861102158805e-21
2.46114349800224e-21
3.86541824621875e-21
1.96308263347915e-20
3.19040232504106e-21
9.70686920717491e-21
7.40436498483378e-21
1.05605929835639e-21
1.26772238034366e-20
8.89777645358391e-21
1.92067512427061e-21
8.25337383806576e-22
6.75204178396813e-21
3.11165214397696e-21
5.53992343237834e-22
8.20764364337312e-22
5.48749109233133e-21
8.04622376171831e-21
3.89748505340147e-21
8.0325453888135e-21
2.29416352382939e-21
4.82853535885997e-21
3.83383317448146e-21
5.05179001062111e-21
1.37943225214486e-21
9.36439298968885e-22
5.52365192612771e-22
5.16138561310847e-21
1.05142459403536e-20
6.15384956598716e-21
4.27238736073634e-21
1.08877813899931e-22
1.81686757798067e-21
1.17808986683104e-21
7.95376336559593e-22
2.72013265739772e-20
2.15040108375854e-21
2.21086903577136e-20
5.42308553609196e-21
2.060866507191e-21
5.52953911651288e-22
3.64624059498809e-22
3.44889124033313e-21
3.67982533506994e-21
5.25431175836862e-22
1.56588114048658e-21
3.12958663622009e-21
6.8633876437016e-21
5.08461995343374e-21
3.69512394672638e-22
5.87103745501351e-21
2.81612192429718e-22
1.33270947482396e-22
8.24283637727315e-21
5.80301779987979e-21
5.94914637211318e-21
7.37469446567217e-21
2.20587801933141e-21
5.70136378209193e-21
1.28460628798266e-21
1.06764029351221e-20
5.63346672006688e-21
6.9492492927454e-22
8.00966170129312e-21
5.00078014702874e-22
2.82725548600774e-21
2.19358645633064e-21
2.4819315915806e-21
3.20978878539936e-21
9.52873469482752e-21
5.0997823506765e-22
2.06488765221766e-21
2.49773365909664e-21
5.82071663893191e-21
4.97444092767361e-23
1.43975133603877e-20
4.7015775513308e-21
1.44327397645061e-20
7.56413447367079e-21
4.88970893125567e-21
4.28723901791079e-22
1.24687628505205e-21
8.358370070905e-21
5.1377295657244e-21
1.42681418606947e-22
4.79871674765683e-21
8.69773940543675e-21
1.34430200222946e-20
8.20910857076261e-22
4.52191336251079e-21
7.00647012803431e-21
3.03421497307646e-21
1.94826175765097e-21
8.07943969910574e-21
6.38771464311154e-21
2.11944087284952e-22
1.85992425390796e-21
9.88371639724625e-21
4.63261970358778e-21
2.71824692950247e-21
6.92733641547976e-22
1.43082996583519e-21
4.04552381163477e-21
2.83694874250393e-21
5.37366577064718e-22
5.52381455225123e-22
2.23077831641212e-21
4.35927208893957e-21
2.8367898242212e-21
1.11332557227757e-21
6.24928093718032e-21
4.75520026171318e-22
1.54917242851349e-21
8.86548603119818e-21
9.23529822936456e-22
1.1365889949432e-20
6.53069925506376e-21
2.97514215025465e-21
8.42976292373716e-21
4.95284340380283e-21
7.15503052348046e-21
7.60181031054538e-21
1.86797658270994e-21
1.36219942858445e-21
1.23863433941161e-21
7.9866163883455e-21
4.13346601581029e-21
1.75379210131843e-21
2.97986267529464e-21
4.58042597425639e-21
1.28421296729702e-21
4.37378430226641e-21
9.77834574537472e-21
5.55500757347946e-21
5.90305052438641e-22
8.81933396629543e-21
1.87566959344893e-21
3.34055391225732e-21
5.17063398042483e-21
1.86039796883227e-21
6.61308550494584e-22
4.20235639446729e-21
1.14459879819692e-20
4.24748414679761e-22
5.91920816585956e-21
6.56485898437505e-21
5.4771838632712e-21
4.34286885193125e-21
2.57043840919332e-21
5.03467122167084e-21
1.29095896996876e-20
8.72401075167682e-22
6.68480977435601e-21
1.18155952194256e-21
2.17329444638171e-21
6.86515260292714e-22
6.08165898942125e-21
5.14371332152742e-21
1.06090750691405e-20
1.79880297709899e-22
5.0419141769917e-21
6.24482581470816e-21
2.93005112899137e-22
2.02171057627151e-20
2.45042973675811e-21
4.0119822618231e-22
3.21067178598605e-21
2.01960387507975e-21
8.16453725068348e-21
6.14671894751528e-21
6.09264954286341e-21
3.12166387849932e-21
2.31501595834969e-21
4.59696352612947e-21
2.36001850994622e-21
4.4068088709179e-21
1.88082246073134e-20
1.00218040194294e-22
1.7002086958093e-21
3.8529727358639e-21
1.96811418930843e-21
3.59454314192502e-21
1.9403484717741e-21
1.18924551916239e-21
5.01938283970113e-21
1.34873317289232e-21
2.38552910834399e-21
4.20679452824462e-21
9.06537637612688e-22
3.94888157464561e-21
7.44284968160742e-21
7.93890102972215e-21
4.14816511353528e-22
1.08851444918293e-20
8.81824900608527e-21
9.61307832586518e-23
8.90789511394627e-22
2.51024010746163e-20
7.76291933498202e-21
1.57504983446997e-21
4.49348494985579e-21
1.26103930837492e-21
3.92953371074801e-21
1.33281077674638e-21
1.51460548113055e-21
3.63881899371751e-22
6.44388107550192e-21
6.94192802520035e-21
2.48643655406177e-21
2.29596606015036e-21
4.99051285425416e-22
5.69639156001441e-21
1.54619402769805e-20
7.02162243666592e-21
1.77055729418443e-21
2.95502973267529e-21
1.930130775136e-20
1.34719978164653e-20
2.98402547790972e-21
1.37587092381192e-22
3.94194307881657e-21
5.78069044882558e-21
1.9232941647845e-22
8.70598170884178e-23
2.24901934078417e-21
5.09792704432015e-21
9.08957035276415e-21
4.49100668490293e-21
3.03956095191258e-21
8.44048710573394e-21
9.24931515691148e-22
3.68770513314282e-21
5.5173940713156e-22
1.08795538879318e-20
5.69132863070285e-21
6.6344815284194e-22
2.84823349372989e-21
9.63857474981865e-22
8.43150517092252e-22
1.57786164164276e-21
1.20690153886545e-20
2.10851791786173e-21
5.43428081533133e-21
2.54859749204288e-22
1.0903270083249e-21
1.27810978195147e-20
3.16956467224903e-22
8.06135526659124e-21
2.38380927262552e-21
6.23100414792039e-21
2.62791359615027e-21
3.43661806856025e-21
1.48844573639354e-21
3.89382189349986e-22
4.03662883681563e-21
1.57196371180512e-20
4.60715725792186e-21
2.03404308098173e-21
6.6409757717638e-21
2.02313178141902e-22
2.06818098550248e-22
6.77691328557635e-21
7.09979884142378e-21
3.17851917398634e-21
1.4886333207022e-21
1.40645021976245e-20
1.39305657656162e-21
1.98352451214136e-22
3.63225555606454e-22
1.41897332557165e-20
4.82469952328289e-22
4.85164594740848e-22
1.45034494098243e-21
8.67014724081616e-24
6.37064886928654e-21
1.11167442951398e-20
4.7114363628394e-22
1.72224561849773e-21
1.7269020174564e-21
2.54350691453329e-21
2.05529099250917e-21
6.19555806493026e-21
4.97619684479755e-22
5.43503710991018e-21
1.06745918233399e-21
7.072453797032e-21
2.52901254048056e-22
5.05645208924807e-21
1.12601367919133e-20
1.1617691460321e-20
1.83188060951114e-21
6.98933368606367e-21
1.09138478921099e-22
1.27485600856297e-22
1.39698371852962e-21
1.40698454182093e-21
7.35831164213077e-21
6.84910685922751e-22
4.19032495165988e-21
1.35413646445495e-21
1.69730195021288e-21
3.40163969161504e-21
1.37406926669902e-21
5.19048235892943e-21
1.49770355145867e-21
1.66322103968706e-21
8.57930833829579e-21
5.21247066114803e-21
4.4302970085027e-21
8.30666970208774e-21
5.48068865646827e-21
1.10394578185123e-20
7.97818056444493e-21
2.84502801718357e-21
1.10342383298785e-21
2.1815629394341e-21
3.99067888446575e-21
1.8943561015771e-21
3.40752139532568e-22
2.36786770375313e-21
2.0718001389741e-21
2.04677378752978e-21
1.93098326969159e-20
3.24002343394123e-21
4.90265832228748e-21
7.66245891292118e-21
1.1276278642429e-21
9.01846494631161e-21
3.23568199497975e-21
1.95356259831739e-22
3.51720299462414e-24
6.64423218807917e-21
3.33567496512318e-22
2.42406800226761e-21
2.87357675088075e-21
7.89228196557668e-21
7.7848400475859e-22
3.55669633451798e-22
1.69320594072255e-20
1.65254997736785e-21
3.4562120713649e-21
3.55450681921782e-21
3.54531904103071e-21
6.73730418418286e-22
1.24278560733012e-21
1.93741398844283e-21
8.86027642625617e-21
7.24558803755022e-21
9.36238856429668e-21
2.12350068695145e-20
6.12287306779624e-21
1.56768022484899e-21
6.02950667666342e-21
1.16704604258495e-21
9.72086507292048e-22
3.45853227825406e-21
4.16212445787368e-21
4.97889509775885e-21
7.77527126265389e-21
7.32500968400402e-22
2.71608009752787e-22
4.98292903828648e-21
2.61439874666727e-21
1.3810557921296e-20
3.19338516069467e-21
4.42714134572573e-21
4.90328289725674e-22
3.04604886737848e-22
3.8204268122764e-21
6.01781081375799e-21
1.03380727341925e-20
1.64375172015956e-21
4.74152554437644e-21
3.68349010942265e-20
3.9891349693978e-22
1.73918816931985e-21
5.6063507880166e-21
8.59320959330292e-23
4.5212405728089e-21
4.54065517187224e-21
1.45927595462549e-20
3.76209302276433e-21
4.23876842628911e-21
1.69324044130361e-21
2.8181180118558e-21
7.58043084451868e-21
6.02867079482874e-21
1.41230978890496e-21
2.29556470609876e-22
3.59595029292685e-21
2.39940032371063e-21
3.81719743327442e-22
1.9655800134887e-21
7.41870619527156e-22
8.12539608204682e-21
4.23746951450679e-21
3.34341008196657e-22
4.41537953794802e-21
1.11455439282259e-21
6.28294038277814e-21
7.0987508386626e-22
2.35188422523318e-21
2.16065371232908e-21
8.37858515615455e-21
1.36976894426256e-21
1.83480196334101e-21
1.57374621757073e-21
9.38975637682238e-21
8.75786296185464e-22
4.66035681328563e-21
5.4570932289193e-22
6.81848156087474e-22
2.45063574321177e-21
3.4998469742937e-21
5.23440621595162e-22
4.28112478637401e-21
5.98351811403685e-21
4.07781315714671e-21
1.05334803923531e-20
3.35209387983012e-22
1.1790341126746e-21
2.01569282802798e-21
1.2071391206018e-22
5.62979100817224e-21
3.04742909039603e-21
9.02690935748563e-21
5.16110984699483e-21
6.04509890274818e-22
8.06038063139408e-22
3.04815079783578e-21
4.88605038791669e-24
1.85245567056364e-21
2.25645029535098e-21
5.88597596831423e-21
3.10147942683893e-22
4.05844967493845e-21
3.53629672137411e-21
3.51807684557309e-21
1.12356856896134e-20
7.04306365092034e-21
7.99194323347327e-24
1.09143572108753e-22
8.82237612444413e-23
3.29278642215664e-21
1.30290490340513e-23
1.0767496181086e-20
4.51811551417875e-22
7.93098382448134e-21
4.08105927456004e-21
5.29571851109328e-21
3.04968249473443e-21
7.11797488681676e-21
3.09435195334434e-21
9.57567105492575e-21
2.67588611628334e-22
9.74119446706347e-22
2.61988540214951e-21
3.27778449950996e-21
5.95770830993609e-22
5.04776286921778e-21
4.91625654254416e-21
1.80502597252634e-21
6.25374547476909e-21
1.80863461533003e-23
1.07627931227916e-21
9.22896201296528e-21