/*--------------------------------*- C++ -*----------------------------------*\
  =========                 |
  \\      /  F ield         | OpenFOAM: The Open Source CFD Toolbox
   \\    /   O peration     | Website:  https://openfoam.org
    \\  /    A nd           | Version:  7
     \\/     M anipulation  |
\*---------------------------------------------------------------------------*/
FoamFile
{
    version     2.0;
    format      ascii;
    class       Cloud<dsmcParcel>;
    location    "0/lagrangian/dsmc";
    object      positions;
}
// * * * * * * * * * * * * * * * * * * * * * * * * * * * * * * * * * * * * * //

5228
(
(0.000391366891561606 0.500602037180214 0.434293595608326 0.0647130003198988) 0 0 1
(0.610882437787952 0.0133973704651 0.336198449134826 0.0395217426121225) 0 0 1
(0.433369379024951 0.0596159850247211 0.0996238137595342 0.407390822190793) 0 0 2
(0.0398410502821186 0.0745882983319472 0.345279970671983 0.540290680713951) 0 0 2
(0.0408793962560632 0.411909198854114 0.291825517080722 0.2553858878091) 0 1 2
(0.176491541787985 0.0147241260856414 0.361892208922653 0.446892123203721) 0 1 2
(0.0291527607478173 0.153794220183046 0.352582169231025 0.464470849838111) 0 1043 1
(0.0430232514627275 0.305894635152071 0.445089341141284 0.205992772243918) 0 1043 2
(0.321849698666483 0.40556433238089 0.0128719368949513 0.259714032057675) 0 1091 1
(0.164036354515702 0.486859927419572 0.174540973734113 0.174562744330614) 0 1091 2
(0.0387994800694287 0.307566456031053 0.0079156667925395 0.645718397106979) 0 1637 2
(0.214648041408507 0.0986036434769644 0.495145336724818 0.191602978389711) 0 2183 1
(0.810300087090584 0.000415980350224768 0.025608310010284 0.163675622548907) 0 2183 2
(0.429471256211401 0.139919919427487 0.0934911384247214 0.337117685936391) 1 2 1
(0.102301373146476 0.0555199296213679 0.12336531607434 0.718813381157817) 1 2 2
(0.280983860604469 0.246562062762676 0.196719582192601 0.275734494440254) 1 3 1
(0.485450973268601 0.349925221875309 0.0454392172396171 0.119184587616473) 1 3 2
(0.558081119321287 0.0487554236315186 0.234104118775576 0.159059338271618) 1 1109 1
(0.194629073608667 0.216855634003877 0.477928808890288 0.110586483497168) 1 1109 2
(0.167276150081307 0.401773639023303 0.259687197860329 0.171263013035061) 1 1655 2
(0.531080093234777 0.161975034046917 0.196155393496157 0.110789479222149) 1 2184 1
(0.310449160635473 0.482521099504083 0.153979281894864 0.0530504579655809) 1 2184 2
(0.134577694348989 0.511653993278741 0.217042769305409 0.136725543066861) 1 0 1
(0.185055879410357 0.195331623777747 0.209862185642126 0.40975031116977) 1 0 2
(0.00971587840467669 0.00226031243801135 0.00330216810107007 0.984721641056242) 2 4 2
(0.0148950316943252 0.0597373372875134 0.547457847278564 0.377909783739597) 2 5 2
(0.594796567223966 0.23799316911027 0.0148451277054846 0.152365135960279) 2 5 2
(0.0997007503174246 0.320159124676138 0.303412034176292 0.276728090830146) 2 1127 1
(0.198531017638743 0.00644081784412428 0.757906572893264 0.0371215916238691) 2 1127 1
(0.147364003118128 0.792820191476497 0.0429645921103659 0.0168512132950095) 2 1127 2
(0.522627948317677 0.348979612812403 0.0486641922034323 0.0797282466664876) 2 1673 2
(0.0807212581858039 0.365296175703407 0.391376450192183 0.162606115918607) 2 2185 1
(0.152663479093461 0.545913419220597 0.26117751048878 0.0402455911971615) 2 2185 2
(0.172518728300935 0.354997998103497 0.105132398195562 0.367350875400006) 2 2 1
(0.535091327037662 0.295684379525483 0.042285281233489 0.126939012203366) 2 2 2
(0.0359609085135157 0.369676935020832 0.401926682796332 0.192435473669321) 3 6 1
(0.0483727329410577 0.667843598406764 0.241013068240137 0.0427706004120419) 3 6 2
(0.301528256386518 0.0223976979032164 0.47664805827662 0.199425987433646) 3 6 2
(0.346667916048318 0.238169337157157 0.332197019364686 0.0829657274298384) 3 1145 1
(0.361717046238482 0.461700323037804 0.115830075927077 0.0607525547966373) 3 1691 1
(0.0818793489597738 0.0885415058583042 0.45748337218538 0.372095772996542) 3 1691 2
(0.289726116694511 0.123914062976837 0.334650224540386 0.251709595788267) 3 2186 2
(0.0372719215229195 0.121389687992631 0.79476435203105 0.0465740384533995) 3 4 1
(0.288036465644838 0.0590152982622379 0.418946615420281 0.234001620672644) 4 8 2
(0.380459669977425 0.05306643806398 0.541739954613149 0.0247339373454462) 4 9 1
(0.626540576573468 0.177727990783748 0.0663973172195224 0.129334115423262) 4 9 2
(0.276626616716385 0.32406523777172 0.0403674072585981 0.358940738253297) 4 1163 2
(0.472157826181501 0.238975674379618 0.011134373955429 0.277732125483452) 4 1709 1
(0.272151476703584 0.383383865002546 0.326332986354828 0.0181316719390417) 4 1709 2
(0.20703632803633 0.408249326981608 0.171520783100277 0.213193561881785) 4 2187 1
(0.064777957741173 0.369670877698808 0.108931185211985 0.456619979348034) 4 2187 2
(0.294925498310479 0.439659948926416 0.256665337830781 0.00874921493232405) 4 6 1
(0.483435282018039 0.118581625167279 0.294818082824349 0.103165009990333) 5 10 1
(0.049826830625535 0.87594746844843 0.0409647352062161 0.033260965719819) 5 10 2
(0.318994236644355 0.249794159084558 0.0655913189984869 0.3656202852726) 5 11 2
(0.329712579026818 0.264124875422567 0.39613788248971 0.0100246630609048) 5 1181 2
(0.13491008291021 0.241643675602971 0.0142616736702647 0.609184567816554) 5 1727 1
(0.248428953345865 0.269165816251188 0.246738184709101 0.235667045693846) 5 1727 2
(0.360813769977539 0.386342348065228 0.24455339834094 0.00829048361629283) 5 2188 1
(0.498405287042258 0.214305656962098 0.159029082860798 0.128259973134847) 5 2188 1
(0.146579031832515 0.352260649204255 0.00393458642065548 0.497225732542575) 5 2188 2
(0.34159459080547 0.204137446358799 0.25041185040027 0.203856112435462) 5 8 1
(0.174254766665401 0.459602526854723 0.317558566108346 0.0485841403715306) 5 8 2
(0.0425601922906947 0.558613245375453 0.27176535036415 0.127061211969703) 6 12 1
(0.124450233764944 0.422130646649751 0.383313254453241 0.070105865132065) 6 12 1
(0.536874039098622 0.124684317037462 0.283325426280498 0.0551162175834179) 6 13 1
(0.162241423968233 0.232630939222868 0.344767405651506 0.260360231157393) 6 13 2
(0.358360371552408 0.1512696063146 0.0364879653789116 0.45388205675408) 6 1199 2
(0.0701844696886837 0.108348336070775 0.796859838999807 0.024607355240734) 6 1745 1
(0.327929177321494 0.288057380821557 0.130810990463941 0.253202451393008) 6 1745 2
(0.477873500436543 0.345966806635257 0.0201660888269553 0.155993604101245) 6 10 1
(0.0872179660946122 0.0513922977261224 0.235410744324327 0.625978991854938) 6 10 1
(0.218295870814473 0.465707772877067 0.119914760813117 0.196081595495343) 6 10 2
(0.0609663524664954 0.426616327837111 0.435526420362291 0.0768908993341021) 7 14 1
(0.532881086692215 0.189714570064097 0.0757771213538946 0.201627221889793) 7 14 1
(0.100466516334565 0.0717896968126291 0.776376107241956 0.0513676796108498) 7 14 2
(0.316621281206607 0.0878154290840033 0.524535488337282 0.0710278013721077) 7 14 2
(0.276893652975559 0.213592736516151 0.198598122224209 0.310915488284081) 7 1217 1
(0.0275943679735067 0.599918133579195 0.146046580281107 0.226440918166191) 7 1217 2
(0.386197631712999 0.259403358213605 0.151438664179297 0.202960345894098) 7 2190 2
(0.174930564593523 0.141359067987651 0.497798599302769 0.185911768116057) 7 2190 2
(0.0514342114329349 0.399791683536022 0.485615360550583 0.0631587444804597) 7 12 2
(0.437339011114092 0.0293553136289113 0.253178880084307 0.28012679517269) 7 12 2
(0.200732518918812 0.564402816817165 0.10456660715863 0.130298057105393) 8 16 2
(0.678183419629929 0.202550146263094 0.0521102137863631 0.0671562203206139) 8 17 1
(0.0408326792530702 0.334625771269201 0.347186990082265 0.277354559395465) 8 17 2
(0.113149014767259 0.314513177610934 0.41685007698834 0.155487730633467) 8 17 2
(0.50327811203897 0.00533595029264808 0.102535577025267 0.388850360643115) 8 1235 2
(0.732827028725295 0.141492337919772 0.0369021892547612 0.0887784441001713) 8 14 1
(0.146580424625428 0.652196710929274 0.133191864471881 0.0680309999734177) 8 14 2
(0.393055510707201 0.0239147678948934 0.126240944955496 0.45678877644241) 9 18 2
(0.0747927175834766 0.279922596644611 0.531854553613813 0.113430132158099) 9 18 2
(0.0146291176788437 0.200603947509084 0.566038378514353 0.218728556297719) 9 19 2
(0.148170257452875 0.782977341674265 0.0155750368721818 0.0532773640006775) 9 1253 1
(0.0451479484327137 0.3222393267788 0.165679800789804 0.466932923998682) 9 1253 2
(0.497694677207619 0.250950337853282 0.0911257863044743 0.160229198634625) 9 1799 1
(0.294246915727854 0.219445110764353 0.168954523745926 0.317353449761867) 9 1799 1
(0.0978007456287739 0.381670452654361 0.0309815416112547 0.48954726010561) 9 2192 1
(0.269673937000335 0.322841278277338 0.163362971972674 0.244121812749654) 9 16 1
(0.0442961314693113 0.84100086800754 0.0527196503244354 0.0619833501987137) 10 20 2
(0.0550837996415861 0.382773279678072 0.35980380279943 0.202339117880912) 10 21 2
(0.331150360405445 0.547846876550465 0.00809539342299115 0.112907369621098) 10 1271 1
(0.0585262696258723 0.868506345432254 0.0182117647491397 0.0547556201927337) 10 1817 2
(0.159630067180844 0.0637402962893238 0.0960582043044264 0.680571432225406) 10 2193 2
(0.138638781849295 0.281950794160367 0.0504566826857627 0.528953741304576) 10 18 1
(0.0438176207244394 0.713859007693827 0.200863415841015 0.0414599557407181) 10 18 2
(0.135070383083075 0.167629055678845 0.551684292033316 0.145616269204765) 11 22 2
(0.195080032106487 0.154564871918411 0.123656207229942 0.52669888874516) 11 23 1
(0.546797909773892 0.188212684355674 0.0530702881514999 0.211919117718934) 11 23 2
(0.0460899476893246 0.134662243071944 0.0629731332883234 0.756274675950408) 11 1289 1
(0.175224201288074 0.499693859834224 0.323030520696194 0.0020514181815084) 11 1289 2
(0.191976781003177 0.0511000147089366 0.13128280919045 0.625640395097437) 11 1835 1
(0.154463972430679 0.395149975083767 0.180964344646782 0.269421707838772) 11 2194 1
(0.324922579806295 0.126721951179207 0.299984872341158 0.24837059667334) 11 20 1
(0.158447520341724 0.039088757708671 0.499922331422565 0.30254139052704) 12 24 1
(0.532321831211448 0.153025144245473 0.111662826500835 0.202990198042244) 12 24 1
(0.448912655003371 0.20113548496738 0.0885986024513823 0.261353257577867) 12 24 2
(0.0795182059518963 0.0135027151554838 0.355849913321437 0.551129165571183) 12 25 2
(0.357913975138217 0.0132976537570331 0.0867334809154301 0.54205489018932) 12 1307 1
(0.115065130405129 0.199036820326 0.0803429004736248 0.605555148795247) 12 2195 1
(0.252013301011178 0.428442629519849 0.108127651736139 0.211416417732835) 12 2195 2
(0.246989605482665 0.26603517541662 0.140326279215515 0.3466489398852) 12 2195 2
(0.513595340773463 0.0374526479281461 0.226964861154559 0.221987150143832) 13 26 1
(0.0734017537906779 0.425991442520171 0.082393580116331 0.41821322357282) 13 27 1
(0.00321013806387327 0.371351545210931 0.112990089226516 0.51244822749868) 13 27 2
(0.284613732248545 0.154970023315402 0.525859726592896 0.0345565178431575) 13 1325 1
(0.13339333049953 0.440175237134098 0.0753864124417293 0.351045019924643) 13 1871 1
(0.218538361601531 0.456862564664333 0.0125294546596711 0.312069619074464) 13 1871 2
(0.181040157098328 0.166953601408747 0.434527582023291 0.217478659469634) 13 2196 2
(0.17688633222133 0.0781728406436753 0.37182417884469 0.373116648290305) 13 24 1
(0.615983847528696 0.0208215010352432 0.350644802674653 0.0125498487614076) 13 24 2
(0.21658995281905 0.0672425064258246 0.625484114512804 0.0906834262423216) 14 28 1
(0.565784283913673 0.0419567385688417 0.342383426148447 0.0498755513690383) 14 28 2
(0.373182513751091 0.268715865444391 0.308230464812367 0.0498711559921509) 14 28 2
(0.0929248514585163 0.646229064557702 0.0292359413579123 0.231610142625869) 14 29 2
(0.282460014335811 0.690467885695396 0.00270184967667022 0.0243702502921226) 14 1343 1
(0.359045702498406 0.0289575769566004 0.49551133485511 0.116485385689884) 14 1343 2
(0.87432191055268 0.0420908438973126 0.0705647803842998 0.0130224651657071) 14 1889 1
(0.375719454605138 0.0346426526084515 0.423881324473766 0.165756568312645) 14 2197 2
(0.0854684351943443 0.102755530271679 0.811279078945517 0.000496955588459839) 14 26 1
(0.0106541947461657 0.732571801170707 0.110567490104586 0.146206513978541) 15 30 1
(0.274411397520458 0.616875160019843 0.0219079698435937 0.0868054726161058) 15 31 2
(0.0504889995791058 0.0674196551553881 0.61176302982494 0.270328315440566) 15 31 2
(0.0259543629363179 0.298503310419619 0.622597068548204 0.0529452580958593) 15 1361 2
(0.350717112887651 0.194991696160286 0.0258460938930514 0.428445097059012) 15 1907 2
(0.413138925097883 0.437251767143605 0.133707602974027 0.0159017047844847) 15 1907 2
(0.545218698214744 0.0526121486909673 0.26380150206387 0.138367651030419) 15 2198 1
(0.0465329713188093 0.0527298809029171 0.430598064325751 0.470139083452523) 15 2198 2
(0.131919163279235 0.661138845141977 0.164641481358558 0.04230051022023) 15 28 1
(0.0750919622369118 0.671494820620864 0.0974233392626032 0.155989877879621) 15 28 2
(0.13744198018685 0.439371103886515 0.412249480839816 0.0109374350868194) 16 32 2
(0.00881999358534824 0.115099415183068 0.808721385430544 0.0673592058010401) 16 1379 1
(0.387221849989146 0.165778735652565 0.429617241956293 0.0173821724019956) 16 1925 1
(0.0010371939279139 0.596907951869069 0.331988123245538 0.0700667309574793) 16 1925 2
(0.300308419857168 0.253099130932245 0.218713322188705 0.227879127021882) 16 2199 1
(0.221303085330874 0.306853014510125 0.372240579221397 0.0996033209376035) 16 2199 1
(0.261902101337904 0.410625521559271 0.225547515321526 0.101924861781299) 16 2199 2
(0.706260434351861 0.0250614807009668 0.211613812018186 0.0570642729289859) 16 30 1
(0.135603631380945 0.618583090603352 0.21407287986949 0.0317403981462135) 16 30 2
(0.313969627488404 0.431758791208268 0.21441840659827 0.0398531747050593) 16 30 2
(0.542193407192826 0.0448050010018038 0.141385073773564 0.271616518031806) 17 34 1
(0.0273885331116616 0.29390084836632 0.42450242070481 0.254208197817209) 17 34 2
(0.146801733411846 0.101501325145365 0.200710537377745 0.550986404065044) 17 35 1
(0.0509099550545233 0.249829118605703 0.453788017854094 0.245472908485681) 17 35 2
(0.0944079435430467 0.455894422717393 0.0776534858159714 0.372044147923589) 17 1397 2
(0.016095879022032 0.00885448791086691 0.312095028813928 0.662954604253174) 17 1943 1
(0.22820173157379 0.615557149983946 0.0199746196158225 0.136266498826441) 17 1943 2
(0.566415624227379 0.0673115076497177 0.285945488605648 0.0803273795172552) 17 2200 1
(0.0998895592056207 0.536785235628486 0.353236952796579 0.0100882523693141) 17 2200 2
(0.263246414251626 0.109782877843829 0.372830853331834 0.254139854572711) 17 32 1
(0.316264328081161 0.545731534715744 0.0480075445957462 0.089996592607349) 18 36 1
(0.683064919430762 0.259913102723658 0.0256655253469967 0.0313564524985828) 18 36 2
(0.588819129858163 0.0734757143072796 0.0783150428906084 0.259390112943948) 18 37 1
(0.695845472626394 0.236460932064798 0.037014245055613 0.0306793502531947) 18 37 2
(0.254877645522356 0.182927765417845 0.428686389699578 0.133508199360222) 18 1415 1
(0.299942967481911 0.26857275236398 0.0728053804486985 0.358678899705411) 18 1415 2
(0.238640529103577 0.116660141386092 0.477040668949486 0.167658660560845) 18 1415 2
(0.359300384763628 0.251186709385365 0.285835390910502 0.103677514940504) 18 1961 1
(0.155388299841434 0.102084676269441 0.695705079473555 0.0468219444155707) 18 1961 2
(0.0754636116325843 0.0406842906959361 0.479556314181536 0.404295783489943) 18 2201 1
(0.142510125879197 0.19790882896632 0.367580514401197 0.292000530753285) 18 2201 1
(0.110761906020346 0.425206389743834 0.172578969970344 0.291452734265477) 18 2201 2
(0.212181492242961 0.140256623737515 0.167457296513022 0.480104587506503) 18 2201 2
(0.502174095250666 0.31233699573204 0.167960753198713 0.0175281558185806) 18 34 1
(0.0136361410841345 0.199237451888621 0.693596173543483 0.0935302334837617) 18 34 2
(0.270734466612339 0.250089001841843 0.0792261711321796 0.399950360413638) 18 34 2
(0.293674736749381 0.141684990841894 0.194441640749575 0.37019863165915) 19 1433 1
(0.41245728218928 0.50306189339608 0.0472160428762442 0.0372647815383965) 19 1433 2
(0.192527488339692 0.230902205687014 0.219623821321875 0.356946484651419) 19 1979 2
(0.279089935589585 0.0213279575109468 0.284346112981437 0.415235993918031) 19 2202 2
(0.53396981023252 0.334572643041612 0.0444148099049927 0.087042736820875) 19 36 1
(0.0713435676880179 0.0828454233705991 0.336954360827804 0.508856648113579) 19 36 1
(0.460161504801363 0.325771116651595 0.189007462002336 0.0250599165447064) 19 36 2
(0.219860876910386 0.423730355687439 0.336356549058111 0.0200522183440635) 20 40 1
(0.0433712787926195 0.276590713299811 0.329580537974835 0.350457469932734) 20 40 2
(0.0356895984150455 0.0784200364723792 0.194139782339335 0.69175058277324) 20 41 2
(0.0134557997807859 0.798294816631822 0.170450461097062 0.01779892249033) 20 1092 2
(0.272952015511692 0.264937103725968 0.454552066978066 0.00755881378427443) 20 1638 1
(0.347427400294687 0.524219591170552 0.0787679683417122 0.0495850401930491) 20 1 1
(0.764607297722247 0.152807480189951 0.059431822039187 0.0231534000486154) 20 1 2
(0.350088368169965 0.391178087797012 0.210403109434995 0.048330434598028) 21 42 1
(0.210757546126845 0.103406459093093 0.371293588075786 0.314542406704277) 21 42 2
(0.450972292106596 0.374236349947752 0.101695018354805 0.0730963395908468) 21 43 1
(0.533921125810591 0.309831906575709 0.154006053227932 0.00224091438576726) 21 43 2
(0.09209641860798 0.271781903691589 0.338396517094225 0.297725160606205) 21 1110 1
(0.381244300398976 0.313339353539048 0.101837634574619 0.203578711487357) 21 1656 1
(0.0241625164635481 0.125592637341472 0.806359290610998 0.0438855555839822) 21 1656 2
(0.220139852259308 0.256847397889941 0.492173114791511 0.0308396350592398) 21 1656 2
(0.0546547630801767 0.252313252538445 0.394172882661225 0.298859101720154) 21 40 1
(0.136496589053423 0.578606636729091 0.0799229536205507 0.204973820596935) 21 40 2
(0.187078006565572 0.136658660136161 0.138483867049219 0.537779466249048) 22 44 1
(0.0957552916370287 0.591020814608785 0.0798529041931074 0.233370989561079) 22 44 2
(0.282894397154444 0.386297842487696 0.115801624953747 0.215006135404112) 22 45 1
(0.368843111209571 0.38590896641836 0.160393277183172 0.0848546451888969) 22 1128 1
(0.199525243137027 0.149486743379387 0.251388454344126 0.39959955913946) 22 42 1
(0.100835999939592 0.0895020784810207 0.695850295480338 0.113811626099049) 23 46 1
(0.283767972141505 0.329484303016217 0.226596369873731 0.160151354968547) 23 46 1
(0.615135840140282 0.274469551630319 0.048495751805604 0.0618988564237953) 23 46 2
(0.34976176870987 0.225731910672038 0.418909907806667 0.00559641281142561) 23 46 2
(0.145305782090879 0.338006021920588 0.484533579088748 0.0321546168997848) 23 47 1
(0.278659163974225 0.185411736369133 0.20683411601931 0.329094983637331) 23 1146 1
(0.331781425513327 0.0492064920254055 0.407862554769962 0.211149527691305) 23 1692 1
(0.13721035560593 0.0672945608384883 0.741667789407076 0.0538272941485054) 23 1692 2
(0.154830085113641 0.250827337615194 0.0666821063496194 0.527660470921546) 23 7 1
(0.0843184832483473 0.664599549956621 0.0777862025424857 0.173295764252546) 23 7 2
(0.595801305025814 0.000891288276762565 0.0797179243527345 0.323589482344689) 23 44 2
(0.251121528446673 0.296006567310542 0.270873247180135 0.181998657062651) 24 48 1
(0.393333011306821 0.156612430233509 0.178283606655895 0.271770951803775) 24 48 2
(0.107349721714854 0.445322109851985 0.257883120328188 0.189445048104972) 24 1164 1
(0.00332529610022902 0.306778133381159 0.433293764479458 0.256602806039153) 24 1710 1
(0.113147320225835 0.330142739228907 0.0383835746906707 0.518326365854588) 24 1710 2
(0.285576476715499 0.184052496217194 0.455239665694539 0.0751313613727683) 24 9 1
(0.200208127498628 0.190204936545343 0.221446425188331 0.388140510767698) 24 9 2
(0.327235409058627 0.252120457123968 0.212944726459684 0.207699407357721) 24 46 1
(0.366413166746497 0.0802035527303814 0.159945974126462 0.393437306396659) 24 46 2
(0.433092135004703 0.362794402055441 0.0673680291511108 0.136745433788746) 24 46 2
(0.0904245567508039 0.412158654071389 0.0325545063242336 0.464862282853574) 25 50 1
(0.300264149904248 0.181733467150481 0.0132122980430731 0.504790084902198) 25 50 2
(0.192855282220985 0.375421338714662 0.324268919415771 0.107454459648583) 25 51 1
(0.154349158983675 0.446224648039789 0.110774498432874 0.288651694543661) 25 51 1
(0.127311739139253 0.436773993540558 0.408848951105031 0.0270653162151575) 25 51 2
(0.014465479645878 0.46157709369436 0.099995901808143 0.423961524851619) 25 1182 1
(0.250019672326743 0.125097662676126 0.325784143526107 0.299098521471023) 25 1182 1
(0.485636758618057 0.218127740081399 0.240293504670258 0.0559419966302863) 25 1182 2
(0.0594517234712838 0.238302026875317 0.29783081449568 0.404415435157719) 25 1728 1
(0.107754306867719 0.468437073752283 0.196551939472554 0.227256679907444) 25 1728 1
(0.508053221274168 0.093992894981056 0.345637507736682 0.0523163760080943) 25 48 2
(0.00452652806416109 0.361696929670871 0.204233030322942 0.429543511942027) 26 52 2
(0.101056967861949 0.504985629115253 0.368466108106077 0.0254912949167209) 26 53 2
(0.0680336328223349 0.376527848653496 0.475332100410012 0.0801064181141563) 26 1200 1
(0.0271570226177574 0.317002164199948 0.501788765192032 0.154052047990263) 26 1200 2
(0.174159050453455 0.255754493176938 0.0594012807123361 0.510685175657272) 26 1746 1
(0.115566743072122 0.369360102340579 0.212008499540388 0.30306465504691) 26 1746 1
(0.183353790082038 0.294736548326909 0.272939748596398 0.248969912994655) 26 1746 2
(0.221528301481159 0.200913888867944 0.348478954751044 0.229078854899853) 26 13 1
(0.0794284064322692 0.326073119882495 0.412990984041244 0.181507489643992) 26 13 2
(0.0798156168311863 0.289416186511514 0.134675202891229 0.496092993766071) 26 50 1
(0.36240483447909 0.0480312085710486 0.188841152470558 0.400722804479303) 26 50 2
(0.233603620901702 0.113144845236094 0.463219248689711 0.190032285172493) 27 54 1
(0.309953559655696 0.35199876036495 0.26876756455749 0.0692801154218639) 27 54 2
(0.121767167467627 0.00437258835881788 0.371742273680867 0.502117970492689) 27 55 1
(0.218127282802009 0.152747543994339 0.400692484807226 0.228432688396426) 27 55 2
(0.608188264537603 0.0773716242983947 0.0855142655782431 0.22892584558576) 27 1218 2
(0.0581275299191476 0.545694737695159 0.16889958176762 0.227278150618074) 27 1764 1
(0.000279610510915629 0.41102921171114 0.48428130010143 0.104409877676514) 27 1764 1
(0.118794423993677 0.632427440956234 0.185568397864699 0.0632097371853899) 27 1764 2
(0.211780039593575 0.556791515555234 0.109100640285761 0.12232780456543) 27 15 1
(0.34865472279489 0.00178068736568119 0.509084750432521 0.140479839406908) 27 15 2
(0.435426032170651 0.0469881552271576 0.331168434582652 0.18641737801954) 27 52 1
(0.259707404766234 0.183572389185428 0.0962696722708642 0.460450533777474) 27 52 2
(0.192996166180823 0.480429334100334 0.0650445166975248 0.261529983021318) 27 52 2
(0.343389340676368 0.235520247835666 0.10454109031707 0.316549321170896) 28 56 1
(0.28145951637998 0.601593341212721 0.00819266121834574 0.108754481188954) 28 57 1
(0.464387137908488 0.0678578400984426 0.202723701018841 0.265031320974229) 28 57 2
(0.208387119229883 0.206318150274456 0.321608158759778 0.263686571735884) 28 1236 2
(0.3992900531739 0.189016983844341 0.129397027194499 0.28229593578726) 28 1782 1
(0.41318597458303 0.15958653204143 0.354172820225356 0.073054673150184) 28 1782 2
(0.0323163089342403 0.48275305563584 0.313420177903026 0.171510457526894) 28 17 1
(0.0877263662405339 0.34213182842359 0.414172404911367 0.155969400424509) 28 17 2
(0.309227351099252 0.168139802757651 0.142411879263818 0.380220966879279) 29 59 1
(0.0567637067288161 0.0181253985501826 0.153971116058528 0.771139778662473) 29 59 1
(0.0817739642225231 0.391520551871508 0.140896865632384 0.385808618273585) 29 59 2
(0.0670037185773253 0.547466573305428 0.241709069814532 0.143820638302715) 29 1800 1
(0.157796129584312 0.606087406631562 0.00134747149422549 0.2347689922899) 29 1800 2
(0.178098998498167 0.577507805544885 0.0096349357627333 0.234758260194214) 29 19 2
(0.114452267531307 0.484280732925981 0.309357094578445 0.0919099049642674) 29 19 2
(0.173915016464889 0.0653582871891564 0.596173147670925 0.16455354867503) 29 56 1
(0.227009234018625 0.409432647749781 0.185590014327318 0.177968103904276) 29 56 2
(0.289390819612892 0.494044987950473 0.182695182971655 0.0338690094649796) 29 56 2
(0.292467824183405 0.465579120907932 0.102065863087771 0.139887191820892) 30 60 2
(0.10277758073062 0.0250755776651188 0.510770730674267 0.361376110929994) 30 61 1
(0.0326821301132407 0.143417313229294 0.1124125123024 0.711488044355065) 30 61 2
(0.107353592291474 0.236331155989321 0.173786240629851 0.482529011089354) 30 1272 1
(0.402223928365856 0.209914297796785 0.161748460493982 0.226113313343377) 30 1272 1
(0.272829875349998 0.4708344922401 0.156852661166341 0.0994829712435602) 30 1818 1
(0.208437202498317 0.157244154252114 0.0639359438791864 0.570382699370382) 30 1818 2
(0.132242984138429 0.00569079071283512 0.574072729330509 0.287993495818227) 30 1818 2
(0.732711937744167 0.0411815750412633 0.0133361290209012 0.212770358193668) 30 58 1
(0.274688354693355 0.398231788072732 0.216358688659968 0.110721168573945) 31 62 1
(0.419511185958982 0.0125230550765988 0.151121887378392 0.416843871586027) 31 62 2
(0.551851024385544 0.0621379283256815 0.198629784397781 0.187381262890994) 31 63 1
(0.598753357306117 0.114592878613624 0.0952998972497907 0.191353866830468) 31 63 2
(0.328037560451776 0.164340632036329 0.357887640129774 0.149734167382121) 31 1290 1
(0.404610519297421 0.488473617471754 0.0658253422006979 0.0410905210301275) 31 1836 1
(0.161373230163009 0.174542243592441 0.34855282260105 0.315531703643501) 31 23 1
(0.0222397898323861 0.393264038953929 0.00300037302076814 0.581495798192917) 31 23 2
(0.00793397054076228 0.559773469343781 0.311646971851585 0.120645588263871) 32 64 2
(0.0724325003102377 0.0231038690544688 0.0223987605422734 0.88206487009302) 32 65 1
(0.0365044050850026 0.247283039614555 0.494621533900497 0.221591021399946) 32 65 2
(0.135502087417993 0.10398477129638 0.520018704235552 0.240494437050075) 32 65 2
(0.38665431085974 0.495520302560179 0.075883477926256 0.0419419086538253) 32 1308 1
(0.322091917973012 0.294282326940447 0.230049923993645 0.153575831092896) 32 1854 1
(0.0534685822203755 0.173758083488792 0.762858317233621 0.00991501705721093) 32 1854 1
(0.111861450597644 0.80015323171392 0.0871938243508344 0.000791493337601297) 32 1854 2
(0.145189913921058 0.771411850117147 0.00717374589294185 0.0762244900688528) 32 25 2
(0.231329991016536 0.328792159445583 0.331646331585944 0.108231517951937) 32 62 1
(0.254797224421054 0.0728872660547495 0.225457410328088 0.446858099196109) 32 62 2
(0.331505916081368 0.00553167564794461 0.0215585492551321 0.641403859015555) 33 67 1
(0.215366269927471 0.331215148791671 0.23681392101571 0.216604660265148) 33 67 1
(0.253972148522735 0.356343261431901 0.174363963305952 0.215320626739412) 33 1326 1
(0.0785411288961769 0.596208827570081 0.106549278832974 0.218700764700768) 33 1326 2
(0.155177133157849 0.0487405229359867 0.763503506314006 0.0325788375921581) 33 1326 2
(0.00498592946678411 0.490380313713103 0.170022206846625 0.334611549973488) 33 1872 1
(0.313625026028603 0.543515297118578 0.0958020291291174 0.0470576477237017) 33 1872 2
(0.403574136551469 0.0678233774378896 0.522332586813719 0.00626989919692316) 33 27 2
(0.559318348299712 0.188802035059784 0.0513692176900803 0.200510398950424) 33 64 1
(0.140149055048823 0.151948091108352 0.317660221364345 0.39024263247848) 33 64 2
(0.0343104558996876 0.551404028665272 0.331776443403216 0.0825090720318247) 34 68 1
(0.0696485307998951 0.0313701750710611 0.00877976231276959 0.890201531816274) 34 68 1
(0.0822601546533352 0.441156828310343 0.410748168360442 0.0658348486758797) 34 69 1
(0.0627959393896185 0.175346507690846 0.0055714957416046 0.756286057177931) 34 69 2
(0.302868874743581 0.0488244611769906 0.092886234167964 0.555420429911465) 34 1344 1
(0.353967592585832 0.0553792095743112 0.503906548954547 0.0867466488853103) 34 1344 1
(0.167393137700856 0.399049044121057 0.4218976595439 0.0116601586341873) 34 1890 1
(0.30028378078714 0.434038707520813 0.17273220140487 0.0929453102871769) 34 1890 1
(0.0531802810728548 0.37132870964706 0.260306894779206 0.31518411450088) 34 29 1
(0.0744486670009794 0.579046112950891 0.22600619215518 0.12049902789295) 34 66 2
(0.379690281581132 0.0952973905950792 0.16941203828901 0.355600289534778) 35 71 1
(0.17415620759129 0.486797411926093 0.291137298569082 0.0479090819135343) 35 71 1
(0.0139086968265439 0.0560883888974804 0.91974004963413 0.0102628646418451) 35 71 2
(0.504882246255875 0.186875415500255 0.0372072253376231 0.271035112906247) 35 1362 1
(0.245119913015515 0.0811595842242241 0.569754134863618 0.103966367896644) 35 1362 2
(0.042733512353152 0.317515495698899 0.248702715151013 0.391048276796936) 35 1908 1
(0.243765630293637 0.179701326880606 0.122877364046872 0.453655678778884) 35 1908 2
(0.00418093102052541 0.13031405163929 0.106766113080085 0.758738904260099) 35 31 1
(0.245426174718886 0.0324027636088438 0.283495876006782 0.438675185665489) 35 31 2
(0.304614574182777 0.0114387501962477 0.184708188753576 0.499238486867399) 35 68 1
(0.0397262535989296 0.594821352045983 0.213688711170108 0.15176368318498) 35 68 2
(0.0723794861696665 0.321135953068732 0.0181189752183866 0.588365585543215) 36 72 1
(0.394385212566704 0.0554884583689272 0.389097949489953 0.161028379574416) 36 72 2
(0.31569120939821 0.199555736966431 0.42268220987171 0.0620708437636485) 36 1380 2
(0.0758320037275554 0.0892039579339327 0.369818415958433 0.465145622380079) 36 1926 1