/*--------------------------------*- C++ -*----------------------------------*\
  =========                 |
  \\      /  F ield         | OpenFOAM: The Open Source CFD Toolbox
   \\    /   O peration     | Website:  https://openfoam.org
    \\  /    A nd           | Version:  7
     \\/     M anipulation  |
\*---------------------------------------------------------------------------*/
FoamFile
{
    version     2.0;
    format      ascii;
    class       vectorField;
    location    "0/lagrangian/dsmc";
    object      U;
}
// * * * * * * * * * * * * * * * * * * * * * * * * * * * * * * * * * * * * * //


5228
(
(1832.0110560844 -179.020228310687 194.927964755737)
(2163.78317733745 117.096862280826 423.49990061363)
(1686.26133569209 109.14040166069 -170.767183296688)
(954.472611578982 -221.757258517107 236.205060619651)
(1642.14971227401 316.097675929076 -145.106849302503)
(1825.07523462055 -230.080964952873 70.3046135164137)
(1134.04235897754 527.371304737652 -206.584582410068)
(1734.58553951448 -298.102482856209 -204.532862468687)
(1653.14514964222 483.903091545809 274.635462103417)
(1559.26004934527 -127.255245297171 -231.168850364136)
(1681.59520512584 182.537351514905 272.71951279967)
(1454.36849735134 56.0688311729547 335.771563593672)
(1804.31635966638 -482.805311774279 -273.37376775152)
(1715.1463067784 167.267967594301 -393.794213323911)
(1813.19781626901 -131.930474247939 71.3290486442604)
(1881.80165740319 101.524681399922 -177.763853749946)
(1490.97455794692 -94.4015190160289 64.9640601903246)
(1410.51452396508 92.8595990805525 -63.8287616698963)
(1810.85907482558 -103.381444664037 237.267219377496)
(2247.8083465593 -209.771168602506 -222.836909350026)
(1693.83453776299 -41.1636706701109 157.525857488343)
(1919.18672313067 -187.821285672927 -366.101334173028)
(1774.24686475043 347.692092752903 503.345537546828)
(1832.62114956593 228.488288386411 -579.468528508962)
(1130.86338991918 -117.056005559817 219.555699863473)
(1829.9512067692 217.286039132368 -225.902980779268)
(1268.1866001887 -439.01541424162 -631.792366077575)
(1527.46805955365 -209.016329341599 -168.130646290532)
(1711.28564067933 -646.889157138339 -247.177682300726)
(2115.98716957977 -199.208557011881 -396.500200066521)
(2060.1295239706 153.062344907198 -53.9212706000846)
(1634.39025154597 36.8913648639649 839.859849161113)
(2557.27173531835 15.4298308044593 -223.30979447015)
(1846.07921421715 489.878393317624 -38.6564121333572)
(1732.57606246198 16.8925452590583 628.101901861107)
(1495.45717269373 63.7779777637916 -189.796756525321)
(1901.11705511632 228.008398599455 -318.537614658306)
(1764.95689756567 90.1629806860197 -121.523876183132)
(1577.60253914536 -464.576083497727 -631.149979640213)
(1043.3551683254 -95.3499942207236 -44.0497515983106)
(1452.24512771137 212.120024728001 27.9495916399772)
(1924.4883908656 -94.3772390838079 -711.632607804668)
(1886.84767685982 120.478912080312 189.11058513775)
(1345.47751150985 273.527069667577 365.262558015344)
(1320.83354422594 -198.236747888125 449.963007189217)
(1580.15171349181 -48.9273684623802 75.7236704957353)
(1594.6602014639 -417.372776583361 212.558552533188)
(2192.56494510709 -220.762402155916 -112.977329739164)
(2348.65725588685 506.18242781415 427.789080337372)
(2148.14084079447 -454.035494693741 743.725264469724)
(1481.03597327922 170.754161709751 328.430717831155)
(1261.08723064225 -171.059497429046 -305.471900434846)
(1285.80122144947 197.305148452703 -118.628454014083)
(1733.73351652249 -27.9821370163495 378.513744424124)
(1221.54534957184 -645.504207396576 -279.157091880386)
(1419.62793391896 -411.60166844832 295.846765227823)
(1886.80008088834 205.150981221846 49.6245697495488)
(1605.44420760009 -55.7918363586027 146.654692784446)
(2068.91057293258 121.666585945137 -303.133609606504)
(1172.99107838749 -117.408687077167 -66.0267295099924)
(1420.17471490723 198.029587646942 109.345899493424)
(1277.83963287198 57.5088577630832 -202.478201605482)
(1985.35305464455 -40.2274752487419 43.6471818980054)
(1937.27134578746 -366.751865569068 412.039853663284)
(1782.52406259913 -339.241563489762 107.70676981646)
(1622.29557229566 -30.640823797036 157.803140151271)
(2089.24691440919 -221.768996184426 505.99486432478)
(2210.03871975075 84.714355026049 398.363943729291)
(2057.47192736462 -53.8828914276612 117.904733235505)
(1864.97650369336 -520.273244351978 27.824531019077)
(1718.61376380686 -84.4702570319944 335.544102958858)
(1888.92115616455 168.413907629028 -306.3780996046)
(1274.73840704764 431.513395394081 359.705650516491)
(1955.50720097847 -492.530800641607 -231.3074344919)
(1938.3694272727 102.111247810354 161.95660041817)
(1223.48572118633 217.368780801561 -99.7307137562611)
(2057.61176668279 124.269736177453 -264.216320007367)
(1423.01489557218 -289.831069066144 -202.205228499742)
(1615.95862668999 251.117697336086 -305.456276639298)
(1711.13871622108 -470.670848758442 12.5596107968845)
(1734.77254462121 423.85979125231 -58.5758246670642)
(1916.3834873926 -97.881749251167 -165.639509478125)
(1631.23311563223 218.468706241232 143.376670860596)
(1767.34554629254 -182.865030752571 -15.8312514604716)
(1619.46508471419 -128.539101287083 -284.108289470259)
(1130.35376436118 -375.705314936673 84.7619505883075)
(1580.89337149743 -24.3006382136091 -11.2633351785624)
(1511.56417367208 -175.331038396051 441.067575230618)
(2325.31920105916 -129.166956231652 160.624252304169)
(1812.37960982988 208.22145969748 135.236158163397)
(1398.82934276525 -82.9857937895473 -55.1340539889164)
(1660.40637981568 -346.270323709236 235.985345100006)
(1605.86334139199 129.771097437338 -384.996326526378)
(1588.19831111343 350.559420627275 -358.775427790554)
(1839.20093088422 579.908289592673 104.285039521046)
(1465.01011688618 -321.211512980084 433.174590585467)
(1449.91410949499 -264.211368648703 158.932904090279)
(1391.19388036751 -270.725986483898 -411.393533208508)
(1905.3403225365 64.2864555163037 115.959538720131)
(1672.96615408516 125.067854255874 -103.792452169163)
(1880.73428365385 171.467649670497 -31.0365485421082)
(1445.74129667342 -324.181275641135 -392.871234796891)
(1358.68015426645 -276.412253905757 -344.417778071266)
(1880.27851813255 348.458234099898 191.136615279887)
(2025.11954338459 -471.718146450025 5.3573335242934)
(2006.29939035693 -145.923881731385 15.3458464306188)
(1056.87791735401 -119.48398123856 210.283903503401)
(1807.94426479195 15.4557799010791 284.725888914526)
(1913.0898730714 -637.396688066579 -255.67971061885)
(1588.65270296402 -34.9125175526322 -125.110658037802)
(2044.94010768386 -204.993647082131 241.157942807389)
(2123.39787197209 470.490292534588 108.954377537631)
(1736.25815022468 34.8300850102349 215.050712099909)
(2554.45363058405 96.3242072546768 -179.256567699011)
(1734.5645377245 -176.212139096155 128.186376844312)
(1648.27741620523 -9.62444069563838 70.6931002044642)
(2134.65547386729 138.514818021584 -651.331339337546)
(1539.15094394556 -268.921392105501 -171.391517664289)
(1759.49811421265 363.9645102157 337.780655049372)
(1729.96066308389 427.932802095903 377.254531866663)
(1434.33453685303 -393.573266592842 -354.360593716009)
(1714.11596006305 -4.08835401555725 -191.735951473097)
(1691.95985232748 -354.430035435507 68.7844665733346)
(1735.35052630703 -165.230761285293 -249.198430678174)
(2311.87410199072 -188.146390269327 -486.790654194892)
(1699.01305875298 53.4181656385325 -92.7141821420591)
(2099.19368811047 258.24996284937 154.219158448014)
(1553.14989424282 82.2061535769619 -383.081937770613)
(2443.32865031959 -56.1250619433557 166.631109641693)
(2297.03599272023 -90.6538438804348 -355.806776187328)
(1865.45368906943 -165.987861661512 46.6319603023321)
(1445.94254925429 117.012117481895 692.17239918068)
(1846.09089896521 320.954103121796 -422.068719389472)
(1469.50574554118 -175.998350997988 -719.904659989521)
(1581.85992768592 -379.286230404037 470.474602190097)
(939.150026900843 167.856201186796 255.194989920931)
(1563.12477050888 214.785835375589 443.131616375457)
(1622.10327089938 49.858776751342 222.834862963799)
(2139.59898273512 24.3931309310504 387.409159049767)
(2037.10621330595 124.742813880464 -392.722653477089)
(1849.83285525349 -196.23337009008 192.898027591447)
(1468.51414221262 -260.951398284496 31.0370683681752)
(1157.68756657188 235.305809970922 341.543470135034)
(1676.27667641842 232.536625551418 -271.692825999116)
(1775.2046839289 -132.252218479059 -425.411082497054)
(1740.26090667623 -75.3796538233728 -164.551190178864)
(1597.1547461682 327.39674359257 227.644793435933)
(1198.78520535168 237.253513117772 -204.946777557965)
(1404.32822201432 -132.344152603158 -12.0253995785147)
(1739.94308626306 -509.685242336607 48.9767175552863)
(1812.5746379496 -234.530246943639 103.707298257127)
(1638.90854868597 583.821312141847 671.39207465687)
(1752.12762717949 -181.041543178896 138.63730209275)
(1865.00066954152 -14.673921589025 158.016795145645)
(1444.66602933606 -285.959759328538 303.46419875638)
(1680.23470628813 -20.9414349360574 -449.498667028285)
(1466.07607981596 -572.014697103573 271.212523283095)
(1255.6205263959 65.9719860481364 -539.647454283275)
(1760.47387319362 82.366210447919 -275.262168681033)
(2149.51288001201 341.055653426269 5.43367294635205)
(2011.14387625352 122.688005294795 -123.746413283634)
(1740.77152910857 -489.077840546939 60.2372816853086)
(1048.78455406997 261.850679426973 51.7766624156224)
(2017.62241868134 -295.959095285221 189.890148882315)
(1291.5156829331 -504.890610367591 -98.7496878766811)
(1980.3975211724 565.981795170243 34.3361229950423)
(2231.99000553309 -101.946925191163 64.2222501171427)
(1623.40327423238 -531.620160348507 102.009751163039)
(1614.52301968132 -376.063391041675 177.112180167109)
(2023.15468086089 -83.6141156833528 526.347809879024)
(1623.71650391008 228.862000894038 291.44146940248)
(1040.96631300529 38.4843630600496 13.8932550148596)
(2123.4359547806 -54.8914539068584 -63.8633209306073)
(1484.82712681855 126.73141109115 531.006803039398)
(1555.59331350021 -402.053868015884 293.783493029073)
(1841.75692242776 -113.317785362924 -79.1768584924946)
(1188.0291571494 218.562497266242 177.494396627984)
(1810.78445133373 108.107338517725 -468.149693216794)
(1568.95061742547 138.084295393701 -130.282880569279)
(1766.94283005609 -346.647171204871 174.525976911248)
(2233.69306918858 -459.878583452685 7.71749701568473)
(1587.39816366809 -218.489070747358 240.72153660327)
(1510.33828501597 207.347551288159 278.84486205871)
(1143.50849372198 -366.114083116899 119.166956845702)
(1413.23549088409 -81.4049750461804 -349.932720601841)
(1970.87227614638 9.16905970784335 734.948116067398)
(1774.56217166408 60.3749108750266 -347.920651966784)
(1799.31859137325 -723.614774329438 13.7407077776471)
(1831.79081836815 178.52815426927 -439.611262736657)
(2138.50601046981 -314.276847811896 -333.769712543448)
(1878.02504669756 128.058971325169 -274.960183543663)
(1475.54423478565 -367.938860272365 -389.861499970365)
(1578.97446896066 -163.35078960459 -267.99005592427)
(2072.31085054776 29.4220159401403 259.137806179593)
(1706.07113067648 818.045478556175 95.8360726396897)
(1375.997443888 -612.573329560899 131.221761738141)
(1097.1168983237 -722.111315601956 245.780061762707)
(2061.5922535918 -350.829257369311 116.808083362481)
(1901.60996019006 66.597001367836 611.695268218273)
(2070.49909409299 -537.324873035793 480.385852052358)
(1786.00411637581 -175.037423026907 -411.026487066256)
(1542.96445608832 -257.302524590966 -531.119235805446)
(1729.69265201553 -264.276879520846 94.1555756387979)
(1976.43740860165 141.405636957791 -396.88838489553)
(1493.12964477395 65.1474149666032 455.41558919463)
(1698.94351835018 -470.557804991686 -194.03185065082)
(1790.54593891994 -18.5242438185351 112.906689107527)
(1589.89281125701 -697.209653475394 241.275453171082)
(1984.15204947328 416.510819129888 -237.812007944224)
(1526.28492841453 370.554761522044 203.745174229368)
(2213.81032155099 303.987828981527 220.018695613128)
(2017.7319261271 407.62089414844 -70.9229579591486)
(1653.46591579705 220.743717588152 -517.261615616771)
(1749.79601161881 -340.636748706787 92.4935558765109)
(1592.55264106566 156.699675850804 478.56563431962)
(1811.4755506537 -281.555451102827 -159.13938622295)
(1996.31818568672 426.919391759945 -101.863366687635)
(1705.58137142442 419.420168975426 -146.14765963607)
(1962.086708967 -551.077480087272 347.316656777149)
(1919.81887605247 -181.579484914767 -194.837900525977)
(2179.05827249226 95.7981419701513 492.877957664944)
(1849.59614821392 155.5477106007 82.3343670580959)
(1509.98105480235 307.691611538798 263.443314794864)
(1638.47256716128 -429.687096449842 275.129396554362)
(1965.45813435335 -120.626152448849 -206.803400623365)
(1420.13927571807 -100.344402142123 125.811303162547)
(1863.16901708107 103.501481374626 25.6608544606659)
(1139.55010865546 133.537258785149 221.461903712951)
(2106.36310186712 867.782821752683 -523.121736923646)
(1439.81468159925 -265.756622057005 366.848457811341)
(1955.3172224076 -35.6116840523552 637.903637375691)
(1425.46599544729 -641.91014504442 -154.469458753089)
(2142.0430863085 -337.292345708534 37.623013943641)
(1879.35693702498 -77.4118455476108 352.92533961567)
(1588.39921982333 405.622630699158 37.0474163648987)
(1736.89013581864 -121.885449423891 -246.861666520175)
(1596.23988609319 -561.427119603017 -34.8023948719256)
(1755.98550706889 -622.879609678456 176.135388697142)
(1507.78959957421 -444.452890453029 326.387951435855)
(1535.3986151818 -148.828923431267 444.253004635628)
(1290.62511287283 175.65277871807 -156.244439677922)
(1137.76853826653 926.452465364511 94.6360836225695)
(1474.88218205349 -282.927832028116 99.726942833923)
(1299.51223553315 -326.867278333066 40.1200422523505)
(1440.42100688518 206.622130792567 -91.7347525196665)
(1777.32113572682 140.547360685126 300.085382619369)
(2079.3974556818 -691.83658158079 -145.314718036711)
(2220.11331547597 46.5987900011864 38.3154553204679)
(1644.57900129544 41.8813530406674 445.729293942876)
(1506.3205323529 297.582963785068 342.738084871503)
(1735.01441759447 -15.0680777071426 49.8190156112967)
(2191.18087475339 8.59326455560576 17.7201453623843)
(2046.63166408684 -235.44833032377 -352.320181399354)
(1802.40239921296 124.67414030063 -672.611608096585)
(2311.05310312581 -346.706020998975 -302.954146227894)
(1446.40554448676 -91.4887768145994 -190.170362962621)
(1474.09466928153 51.7860653283341 429.074473594786)
(882.48339081393 -641.490151046535 115.848302474106)
(1683.9004197803 -358.054524206744 206.480776283796)
(1754.37706554097 -10.7119952722294 164.283669615818)
(1620.18675383984 101.876705586283 186.757570298427)
(1555.5066241607 -478.809914670769 -288.652976259745)
(1393.94335172376 -154.698865547011 -726.319051119706)
(1726.22784385376 176.989228081907 -225.803997095488)
(1587.55376235392 259.756861942663 -358.539322354452)
(1786.66626056263 194.922089311532 228.981432239517)
(2331.97251358404 342.592847225889 -104.141336978567)
(1442.14333522606 -372.479914832598 371.621876644664)
(1831.92283478466 -243.094340845892 -285.228612127686)
(1788.15075341712 -460.620337573496 -15.4917655108695)
(2061.92088102277 28.5045961982486 -468.508972928492)
(1868.58021374076 10.9076544151423 -610.690073708706)
(1589.92708822934 -534.744379540226 339.79077737298)
(1631.50795259819 -363.57666435138 -216.083723763007)
(1740.79477397356 471.031208111079 493.156076390195)
(2209.07901735077 296.769011781845 305.235923212798)
(2345.85825744237 -8.44485727415559 243.81030149544)
(2181.95166692019 587.096376539042 -97.5503941011838)
(1833.87640074302 571.481309073617 -313.719583320976)
(1460.88411529276 -124.042872606274 -1.98437456285446)
(1742.64319830048 158.910970963498 -674.163894891875)
(1036.82955411476 -74.3980052351396 224.590649240456)
(1759.7296913739 74.7792909167366 58.8242951195879)
(1377.54331999699 205.92455258989 622.026682478733)
(1793.74372688745 -488.798854241103 135.089675660684)
(1718.39406460893 20.3410746318071 106.681908473311)
(1744.18708993807 77.9329020474453 -482.058205513749)
(1990.09842935015 -502.985604658766 -154.379043247326)
(1764.20661459503 145.778101343339 15.5323578201856)
(2124.49804275942 436.366478161282 347.594360659286)
(2092.45235822446 -34.6747062881776 192.720487127261)
(1928.57204983503 628.088972444447 -157.538612648381)
(1465.75999856616 181.117934553449 51.2768116913094)
(1791.47242436137 37.5925113895155 246.238580016588)
(1880.86914730987 -32.6869131260593 445.056028558341)
(1341.35249176695 -28.8748426857949 -5.04849337134122)
(1392.95923280946 -311.456702421584 28.9989123912132)
(1640.95761925787 -57.5256058102197 43.606603060976)
(2204.90353873566 -108.754112048729 -14.1463006228631)
(2227.67884520745 -317.199967859607 155.844667808785)
(1998.47317041603 111.571665461219 178.507359866576)
(2052.7634948131 284.471721270769 -122.505486204009)
(2464.76835755556 288.025146707812 -121.095470765741)
(1607.8403948108 9.18365714699859 -426.023303736192)
(2465.9459129284 342.675365143067 22.5076527370884)
(1993.83388550888 -205.47213778633 -166.670259735671)
(1882.08063932958 478.047821817322 -155.611606771737)
(2000.81769074966 292.705311669233 159.149941237603)
(1894.2487967897 -239.755838333262 68.1698025533192)
(1622.24995686543 -61.3563994791501 163.646956454093)
(1485.85613980711 6.28948440703801 -317.158840799855)
(1860.8514895193 481.172544882952 334.243274493704)
(2440.55331623415 -543.231378806307 78.5117979900777)
(1989.3808679307 -106.217152403269 -185.296893772944)
(1596.07706761821 -39.5886056538732 -43.3660551234188)
(1561.35521117593 -300.452264973771 193.675543232412)
(1237.31814109631 14.4165125647784 659.410093806666)
(1418.64116159881 -48.6270824025948 -92.2551075597325)
(1756.52190480798 -180.960292968395 280.727409471791)
(1464.53691776806 -243.859512859354 -60.6518253907028)
(1533.02096773428 -166.767238225283 -256.708082806068)
(1549.23133802894 -132.763346220823 -257.11741037526)
(1640.60789497859 462.996022011685 98.2935409426362)
(1842.34828953319 268.544520529298 266.804321903721)
(1718.35312783505 419.205313963513 129.893875215635)
(1929.84060542817 -377.972182934021 454.936640072973)
(2200.15538165996 -69.5910430469794 -425.131044752517)
(1421.89022972172 285.829941181933 513.529895945049)
(1294.36947605172 -330.931311287065 51.2175328296597)
(1420.54652971 -24.5080515162621 311.76867522364)
(1404.31891639681 871.865505333563 167.243235834356)
(1870.34622722405 292.453538546319 223.33780788289)
(1787.67482322724 -287.178167939367 -120.289942484212)
(1921.26436339803 -377.5247627536 235.093119729099)
(1395.61578845668 -2.28376269161374 455.741314355715)
(2207.43524622214 411.299565188508 -321.750586946291)
(2224.18355374345 -193.780512263569 505.705718231829)
(1435.45800900435 231.541961284586 48.6475125076595)
(2110.96110048096 -274.530705944726 -410.104020509639)
(1553.58083243562 466.813602470843 -260.12804159782)
(2029.1563016135 -50.0827860205073 7.12360935018038)
(1873.66752740011 -583.880572052633 -104.911758542389)
(1546.00174025039 426.350235734842 -132.799452804158)
(1287.5207316753 -526.562873485935 -63.9271196327741)
(1514.36745891806 -303.564555672944 -162.125226356075)
(2104.53372705539 -377.76540753457 742.800278028799)
(1579.82123435348 -846.901405342415 -136.177652122359)
(1859.02986164877 31.021679469262 -312.262146475973)
(2189.55268951501 95.5544238782041 390.677604166671)
(2133.42380207709 -158.47490411987 -471.113921178017)
(1674.09271452565 -119.91987657529 240.588661819353)
(1383.91149902316 67.6293287872567 -65.8069075090382)
(1556.47858879752 -481.717859180699 387.436084306713)
(1769.16042423419 368.45035251872 -44.3495576271975)
(1474.23030756876 -187.635486523391 -24.9331552629176)
(1759.49450096914 158.157466072421 41.7304307261214)
(1808.40902907572 -459.496448487857 -37.3606728569122)
(2037.02905661073 365.287340143864 -13.6682442153554)
(1681.86868092168 132.7838006904 351.682025060958)
(2743.13056130042 -323.098137340119 429.854291634429)
(1639.93529442814 779.271902897496 191.541939136323)
(1250.58429703465 -140.124892442143 -334.16507743748)
(1426.19544868997 -167.063686699244 -232.865448532943)
(1475.36967264325 -45.4472601862012 -193.941486581328)
(2014.07973302487 -69.0360120918668 -151.50616144673)
(1726.17763859556 81.1849100691507 -41.834363270416)
(1414.50423761897 -495.238305001323 -396.854942292715)
(2189.61683243441 -169.629186226354 -228.41354383432)
(2345.33140847363 -365.839841256197 -84.0071081766348)
(1628.25677869372 1.45460960769632 -98.8380260459801)
(1927.62782444224 -4.00343787056473 -332.353151064154)
(2184.24573125056 -148.650196298225 -306.885337374012)
(1692.28113288487 -453.000902766389 106.944465515159)
(2267.04219672265 30.1813822503699 405.725261903299)
(1771.56105433757 -50.9587343939537 -348.282330768557)
(2322.13502300826 166.658322687074 -303.722607924932)
(2134.95337172682 44.6221631467208 -71.0556992086647)
(1924.60235323206 -162.974457361862 352.173883715579)
(1728.20882992795 405.551552220484 -326.088933661784)
(1570.64494643563 26.6487306356591 -247.032475600344)
(1591.30527869504 -2.93837882098801 -70.8451352732172)
(1846.80455106065 -283.922620609165 427.109034876727)
(1519.21318743588 536.168254719599 152.522464956123)
(1601.64881573967 -796.738467389484 -212.234138752375)
(1754.2813772075 30.6311228755327 -152.977900158492)
(1923.30027061578 215.010611259401 -309.784758597983)
(1974.09307383552 450.788536687983 413.676798925141)
(1333.55728242697 285.221749097416 -107.197669807144)
(1557.90127537848 -172.725918117072 -237.611053831576)
(1855.37304943235 -546.680555469434 -33.7901992357831)
(1420.32496751278 109.05722079419 59.9166749611448)
(1620.89597881123 -361.36055028635 -274.218426987281)
(1855.27196286959 61.5487479967811 314.588284344416)
(1360.83847793548 -176.188658798917 -238.498487003399)
(1100.81531718456 -24.0037121660331 -352.457733972666)
(1978.37624677835 -66.8760992717598 283.59681002606)
(1765.22497673178 -339.27258187977 306.978401016411)
(1777.38183425554 -452.325015960953 -271.586399051719)
(1611.82308072332 55.1436021160916 51.4460521241399)
(1368.15101577563 -618.543583883515 -572.368711580359)
(1333.92892556376 246.678402317748 134.411891161384)
(1654.42560028846 -228.564872205816 -388.616928281568)
(2013.71160033204 -144.461382195067 50.8243291386693)
(1560.36322527633 79.0462500351979 615.668375041671)
(2592.93693576697 -339.478104004352 353.086997591806)
(1630.04525152706 -80.2322059093042 86.6207919496891)
(1853.03818321164 -9.84630856425066 109.714461462706)
(1642.59681949403 -295.25689414138 -328.5189178122)
(2047.51592043576 170.225002736906 -0.976242797950504)
(1336.99783503901 122.71202074922 924.946244871017)
(1358.73638512572 -639.517078338937 629.197325283888)
(2006.70451465907 17.5797483188463 -55.9399193865507)
(1500.90083236454 -208.573367371881 -24.2932111538783)
(2169.78582005588 462.758929206343 6.83806377417892)
(1984.2081043295 344.349239005032 -88.6562637758104)
(1744.58023376851 -278.742561730584 -216.473163189945)
(1243.83033313402 227.113570281971 -129.365631515968)
(1727.19996978899 142.672762593054 -328.301692979035)
(1228.43162408793 -121.690732389549 769.446820095058)
(1684.71352932027 241.091087439273 -242.778768648198)
(1586.14893387854 -108.173470706983 -380.090358461478)
(2153.57646180558 -277.765057397937 -374.115962438813)
(1397.21216040849 -32.4560690319032 272.566347948041)
(2170.91716488534 -154.161462007258 -469.906137696995)
(1589.9889307568 -30.6223152614335 -99.3494886463503)
(1281.51007203844 0.93301673012856 -80.8990459260942)
(1895.42466965349 -512.108803190119 -140.730343527652)
(1819.49934568906 89.5616483724115 136.656418730493)
(1571.86374190644 256.839048936257 -434.914535553397)
(1568.83365080438 151.415277560441 191.521687797961)
(1475.16185596781 10.5777427785244 -23.3048815777401)
(1818.40894498288 -381.018898832128 218.748482546025)
(1536.69593637986 -178.812022273333 368.916735724812)
(1720.76479523558 84.79857785931 269.267953135206)
(1466.43220365733 -87.3581296054375 136.076100184096)
(2035.95844604215 435.959806353587 -269.550461750237)
(1714.01869806602 156.173541257958 377.354568440142)
(1800.64279490274 -426.786203143173 -163.900695436139)
(1403.3574987002 415.598893077412 -11.6722098090607)
(1688.92444688811 35.1666841346145 -133.375037596448)
(1711.81110025347 -23.5288386153724 341.047957156314)
(1513.58827653808 256.780034944509 107.03839285904)
(1830.63177204653 487.195654631806 -431.749572942056)
(1333.17133842577 984.625333327457 -196.192126910542)
(1259.42720172401 -324.194869952581 157.886459092365)
(2033.93620010541 193.536429976976 -28.8305451624653)
(1240.03759071982 178.437012627448 -519.711105635473)
(2125.13717461518 -61.7327208611427 128.280252894241)
(2210.77804979388 -444.001758339565 223.59806983613)
(1629.05626631717 -22.4230673221396 148.998837467809)
(1852.32372697746 -142.166044761661 287.196293982246)
(1654.60651567049 -524.942008189133 -81.349804973258)
(1691.21973218772 282.21133203145 135.432818189773)
(2051.12748564029 -315.637874688588 -39.2367366345095)
(1778.84687694039 -293.131867922502 -14.9932021483438)
(1927.29878669694 461.561891352765 -203.814976909745)
(1620.82778726326 28.5636056770968 188.610867218095)
(2068.89347281204 -186.220346274913 329.840236716532)
(1934.03030458344 11.8191847479925 305.265440806423)
(1757.02496776906 -549.96730811442 320.133380993743)
(1388.4713154756 -128.717624736434 -77.4372119705357)
(1614.57058878925 98.6179791508526 -142.507077171344)
(1906.66710399238 494.203829447551 256.043239824325)
(1159.27091980827 -440.683795631626 -121.137406977793)
(1857.56600647222 452.357362979876 319.346713666877)
(2137.04015051279 37.8660245798096 331.867857818868)
(1910.91290903574 190.221376667718 97.7915178361223)
(1977.38050251987 237.339133773238 -62.8622497221959)
(1591.91063621179 -1.21591410024319 220.887753056312)
(2232.65632909093 -5.79548581193241 -24.8286583658376)
(1893.38942299129 415.176689456079 -134.834974766861)
(1806.08180336175 -62.7350513377095 8.78080019647064)
(2267.06427131632 -546.26058139788 139.101220266474)
(1860.7041156728 -125.9835318 108.340902193339)
(2074.11965256135 -40.6186038988791 -525.654441303899)
(2040.79494422577 -47.048286394757 217.38253249856)
(2137.79297386918 -558.619691752865 4.37235402012952)
(1890.23288452375 -152.858499056795 -123.366801554179)
(2212.46542595289 299.934964549275 -80.0104400073891)
(2100.05162133148 540.943539832878 386.028871174841)
(2006.99358957768 -164.769449235377 363.541786223588)
(1800.71732458433 -321.065171499025 -343.625234767759)
(1583.69829656113 236.409165660827 -184.663185525344)
(1649.49616802317 60.2571862860149 153.990732613644)
(1424.04444553571 95.9652444411374 57.6420881407221)
(1530.23227176318 166.56684527302 -189.814226802073)
(1540.44525667615 -136.905399098515 321.003606539287)
(1258.72487689181 382.249706272593 -489.844583351045)
(2095.91353393954 -175.70883714143 -196.686327032619)
(1447.6266673007 -206.576553183722 -266.481481156579)
(1722.54176537586 -248.981831353055 385.325199670875)
(1777.2281810534 465.917572574515 -20.8756590041512)
(1620.58078499737 -495.268787370467 37.4765063813496)
(1625.67386650882 134.337193376564 237.298336820287)
(2057.38448422704 -161.941417284037 -316.00680819597)
(1601.72741941994 43.4738369131849 92.781793082447)
(1570.86150627775 -384.892603136377 46.3723044845574)
(2243.82609512263 196.618797867627 120.5870150714)
(1543.84336572065 229.872657812869 -274.500434423917)
(1878.83439813159 -38.0328802845583 -187.20915172587)
(2092.44465112988 -190.72634336973 -42.329338673952)
(1953.44220513513 -256.193760391958 171.741418131712)
(2680.3840815455 -0.983268699249163 -15.7513765883444)
(1746.77381825741 -334.644793652056 105.947141208199)
(1578.33122998275 408.103236604923 -279.226771693644)
(1291.85442697184 -666.148988835559 -400.183011845386)
(1839.11493455927 -521.847225907105 -636.955621785533)
(1754.7482400153 -229.342382493848 1.7961511200253)
(1579.13888773305 212.455824856476 85.8258748746291)
(2168.84318125715 -225.089666273856 564.816181913458)
(1703.87843066446 -55.0562591524996 -418.170182282258)
(1640.91130302241 34.6522471553906 219.718661942082)
(1460.92741587537 -414.827978533018 -221.331568680278)
(1463.38303525445 -191.929577302777 -732.390112683229)
(2095.58482137693 129.765376673745 -394.211747433593)
(1770.61253726766 561.87717110319 -426.245492435615)
(1048.43711469635 31.4840994150128 -141.488764131829)
(1645.78361387204 -306.858898766244 573.092607279906)
(1601.33035449666 -311.81365754045 20.1390411299887)
(1902.87198896927 -444.578728216344 74.7585987266677)
(1737.72338346246 565.519350246316 -72.4245329093655)
(1210.95280342358 153.301750563819 248.225785222921)
(1749.70806469373 -234.416859284781 -278.999874767501)
(1437.05804004984 732.182375117154 88.01873487231)
(1729.44621944637 -401.948686029159 227.559163615561)
(1624.22024038063 156.588359377958 46.2349967444977)
(2051.7174053795 181.376234870182 399.014548009482)
(1886.50184653916 -594.372502340402 184.38332893048)
(1693.46890903931 -94.4937109848491 -517.869331118354)
(1619.55327121465 -205.034789114853 615.860574660983)
(1329.32783471475 -46.8785532352544 -168.938178250882)
(1332.78718073341 -227.717521239642 -275.410539669692)
(1661.16957796424 310.324803469317 -88.6930972339497)
(2061.90410534026 79.564169317377 -99.1655227424393)
(2056.07268125296 269.605335639072 -251.894543383354)
(1561.22619106664 -131.211882809787 118.16337613547)
(1511.82123586368 -215.469028063114 85.7337542588339)
(1938.63885698572 382.471885729157 503.853709767992)
(1540.17326582821 146.472228519003 -343.910152100027)
(1976.54393057703 282.507236589317 -0.948368556292814)
(1923.39979676839 537.116614296178 -34.76586462864)
(1792.52209403642 -297.132405875278 229.476188177458)
(1736.50002372936 192.717897532633 -52.7339270630973)
(2056.93642272329 -334.480106004096 -530.574030020776)
(2070.61905118971 537.347660690986 450.133835618598)
(1504.02162252488 -253.60411459297 -274.002880679432)
(1722.93579897809 -250.083478207791 590.784630929992)