/*--------------------------------*- C++ -*----------------------------------*\
  =========                 |
  \\      /  F ield         | OpenFOAM: The Open Source CFD Toolbox
   \\    /   O peration     | Website:  https://openfoam.org
    \\  /    A nd           | Version:  7
     \\/     M anipulation  |
\*---------------------------------------------------------------------------*/
FoamFile
{
    version     2.0;
    format      ascii;
    class       scalarField;
    location    "0/lagrangian/dsmc";
    object      Ei;
}
// * * * * * * * * * * * * * * * * * * * * * * * * * * * * * * * * * * * * * //


3043
(
4.75072960139245e-21
1.8044391431199e-20
1.79825683722184e-21
1.10086182230724e-20
6.07607997055164e-21
1.15075151686575e-21
1.01790150851977e-20
6.17434383960801e-21
1.56441731455848e-21
3.77556254113703e-21
1.00872612524688e-20
7.01185040407196e-21
2.32059843813729e-21
2.32080840263562e-21
5.01881316301038e-21
7.21908372677446e-21
1.65236808272423e-21
2.40392791622489e-21
2.33193025684049e-20
2.68922931852969e-21
7.85105717159381e-21
1.18303299480342e-21
2.56206261601943e-21
1.04277150774207e-20
6.00447463903928e-22
7.67659261195262e-22
3.19003971723045e-21
2.9475256342695e-21
1.42198739244083e-21
7.69552596475536e-21
1.70460925118701e-21
1.00782435950695e-20
6.02673825107825e-22
5.54762286589617e-21
3.43359306705734e-21
1.17862068134038e-20
7.97252241494228e-22
6.12088272142377e-21
2.01697174941763e-21
2.72364525125425e-21
1.60874684089835e-20
7.5870560487554e-21
1.29804681815479e-20
8.88608085796351e-22
5.07482529842095e-21
4.05596709312984e-21
2.3393310804794e-21
2.15249357356199e-21
6.85551592161945e-22
1.10679463503484e-21
1.10670262046683e-20
1.81499351800889e-21
1.70153702585766e-21
1.71825945561394e-21
1.85005026681274e-21
1.58687717528749e-21
1.58467874823159e-20
3.33740508623531e-21
1.99453666619947e-22
2.74940297410715e-21
4.99836496770403e-22
4.8197672284981e-21
8.47077640987462e-21
1.30948977166512e-21
1.03557986097902e-20
1.09670129428942e-20
3.32220758817358e-21
1.01959608552165e-22
7.09808996185658e-22
5.27583305712374e-22
6.1505703790799e-21
1.41182178268935e-21
5.98222878566795e-21
5.73563728786367e-21
6.2709933348983e-21
6.7850397076686e-21
5.75312079273085e-21
3.54495108673825e-22
3.35408138122392e-22
8.00558035757754e-23
7.76462128040331e-21
3.79129845754354e-21
4.64939506164781e-21
1.09369285070181e-21
2.10630771997506e-21
9.0504344342844e-21
3.17401743315113e-21
6.99252826902026e-21
1.25217784120288e-21
8.11695735670962e-21
1.76002475908128e-21
1.12059630215781e-21
1.81477359477459e-21
5.80082110916581e-22
6.31159233952686e-21
8.62191688571748e-23
5.10124145163336e-21
1.75662416219926e-21
1.62813250207159e-21
2.55314897764287e-21
1.36394058252076e-21
8.42158618808576e-21
2.4446472488016e-22
4.33048421545175e-22
4.76467184823515e-21
2.95698781903946e-21
8.87190913008429e-21
5.41048088799382e-22
1.97119613977039e-21
3.87214848558028e-21
5.19825032285292e-22
2.17021149081503e-20
6.31177905022489e-21
8.02245965083332e-22
7.88355685458664e-22
5.07606557325411e-22
1.95172935922396e-20
1.82796970223339e-21
1.42435442316375e-22
9.79875355921688e-21
7.31173357843118e-22
6.97416417311894e-21
8.25530751506354e-22
1.4467662724608e-21
4.72886740279378e-21
1.2157396883729e-21
1.24986488818982e-21
1.67040055911337e-21
3.23373721914545e-21
5.26924645741692e-21
4.1459382151721e-21
5.31690409802471e-21
1.73309201216292e-21
3.65025981923838e-21
3.36858851436194e-22
7.75323029842326e-21
8.76856113694832e-23
3.84981230116815e-21
7.25453675021068e-21
2.22536619236347e-21
6.13253915327286e-21
2.68729398264197e-22
2.7340570064691e-22
2.09065785030884e-21
8.85194344216939e-22
1.58904099014988e-21
1.48577128806714e-20
5.59889291729622e-21
3.91626061085377e-21
4.05349242380226e-21
6.75512340852294e-21
2.84400411319916e-21
2.01185372598612e-22
3.72761475257586e-21
1.35720241109256e-21
4.73591286550326e-22
5.94553182257444e-21
3.95888010947246e-21
1.17184835857723e-21
2.24510942566779e-21
2.67465644823668e-21
2.20027360489566e-21
4.51821684536635e-21
2.44057704682306e-21
1.95820426337071e-23
6.79888787471322e-21
5.68286540003821e-21
4.50210262757445e-22
1.06693226588233e-21
4.4365133995611e-21
1.32587529757258e-20
5.26230134076604e-22
8.20068499431689e-21
6.04243015615297e-21
1.05884480018656e-20
3.14243528564451e-21
1.00366149701924e-20
2.85396296374678e-21
1.63941539208665e-20
4.87523384378155e-23
4.25094283202936e-21
9.9108421780619e-21
1.71068756785864e-21
1.86683564702709e-20
1.30147460409026e-21
5.3941157991082e-22
1.26490763131378e-21
3.31066281877939e-21
1.30960433459886e-20
1.00478242417148e-20
8.47997794840233e-21
6.31714069056952e-21
3.60081468521853e-21
7.99778547276809e-22
4.06182355190405e-21
2.45552805528555e-21
7.20494724186017e-21
1.17617293644327e-20
6.08660427627424e-22
9.70588212744555e-21
1.15421626204087e-20
1.08512829038236e-20
2.51160330324744e-21
1.82277400597749e-21
6.87820342010353e-21
4.99468239436395e-21
4.61624546664894e-21
7.92903301559316e-21
4.70366703691955e-22
4.47395208795852e-21
6.8059913709128e-21
2.60608751614458e-22
3.92205840704165e-22
2.83450736184516e-21
5.55371445108308e-21
1.34164867491322e-20
5.32740592337074e-21
8.53436385557299e-22
9.52834401577643e-22
3.56769512035421e-21
2.14841152381503e-21
1.89235891964764e-21
3.90615493093284e-21
5.17333503706847e-21
4.9373388196949e-21
2.3345938391275e-21
3.99306974006319e-21
8.45689747325732e-22
6.45894532029911e-21
5.80054193563252e-21
1.64550698978602e-21
6.16148236797389e-21
8.50954710323145e-21
4.54327057794352e-21
1.58254511380881e-20
2.39212033764842e-21
1.34330664392118e-22
2.23620791337383e-20
3.29982885225634e-22
1.0071716703678e-20
5.62205314474927e-21
1.58097602512575e-20
4.49880934923201e-21
2.26085607590444e-21
4.72737098351798e-21
3.81104563863935e-22
5.96800216827816e-22
1.01103308839757e-20
3.83229407746797e-21
5.64849070862994e-22
6.34871342229827e-21
1.14037382980858e-21
7.60530795958128e-21
1.25140489275608e-20
3.07883579992439e-22
3.17743627289309e-21
7.56184551709315e-21
1.38488100220794e-21
7.03208386489332e-21
1.72977538127772e-21
8.78774615636114e-21
8.76189072719452e-23
7.53242840746927e-22
5.32931811500147e-21
1.72153175337846e-20
4.13765841126266e-21
1.79486446935977e-21
1.52153700542982e-21
4.3985477801294e-21
4.92111746822727e-21
2.99175740544122e-21
6.93217843414485e-22
2.37641238710846e-21
9.7093640438139e-21
7.50081187988985e-21
2.88377423501e-22
8.74601431970525e-22
1.31922415301828e-21
1.09890106654896e-21
2.55999035249241e-21
2.14500513223223e-21
6.6064410288935e-21
6.03007511875583e-21
3.08922771505653e-21
1.93150017789305e-21
3.61913406665746e-21
1.0714445842059e-21
4.53586297360663e-21
9.80968501438841e-22
2.10393974518909e-22
1.01022254797746e-21
3.63434952644981e-21
9.91675227811933e-22
1.55873577071098e-20
1.23009231110536e-21
3.77282417900963e-21
2.46133779768196e-21
4.36624993150607e-21
1.03231210508923e-20
2.80722203704052e-22
3.93159433586686e-22
5.84033612210647e-22
1.80411994209118e-21
2.9961085130063e-21
6.80341658548328e-21
6.59506193560183e-21
5.95900547060182e-21
2.05827500162133e-20
2.29595882153578e-22
2.55288407012099e-21
3.22775402726466e-21
9.46585840499745e-21
4.91630802406378e-21
4.96516073679824e-21
1.65985119886314e-21
1.30327329527578e-20
7.48245223637594e-22
7.00386886848348e-21
9.5794091827169e-22
7.75360250015188e-21
5.71094387740628e-21
3.78150147901117e-21
7.83167053192284e-22
6.50266930363899e-21
5.22906854095694e-21
2.00623981656771e-21
2.319608948484e-20
1.01997443537549e-21
3.33812322346232e-22
9.55380764808748e-21
1.02454363158149e-21
1.2729809311045e-21
1.94758320212601e-20
2.04701029513408e-21
1.07255379714444e-21
7.60139261565236e-21
4.75597287752497e-21
1.23797981029486e-21
7.29242888973875e-22
2.16280518107599e-21
3.92544643087178e-21
6.39971158833928e-22
7.7333896367392e-21
1.0874527858416e-20
1.65053508504397e-20
5.29687740092847e-21
8.46129184633153e-21
7.54137740748186e-21
3.39335991002772e-21
1.59629079903837e-21
3.78601511864372e-21
1.19983064795017e-22
1.47854414877035e-20
1.15063509502438e-21
2.62918813462684e-21
4.56775785841931e-21
1.54559840036854e-21
1.15025599807283e-21
5.8133742937095e-21
3.45356139681815e-21
5.15625234972371e-21
2.95026096137155e-21
4.59782351568691e-23
5.34820861720928e-21
8.60332745594238e-22
5.86732279221312e-21
9.83775237222849e-21
1.4604676248597e-20
5.36855882505012e-21
1.51210405827472e-21
6.60045644009711e-21
1.52877697510735e-20
3.65501293399555e-21
3.71646441789045e-22
7.49808714763591e-21
1.99172473602256e-21
1.65190729876685e-20
5.32400522067211e-21
6.22831832444703e-21
5.92111711251491e-21
3.68647118178724e-21
3.17774947137078e-21
2.18957877892084e-20
1.86592962134329e-21
5.30766587051476e-22
2.78889048619179e-21
2.91290734963349e-21
4.20357445790153e-23
7.11810638049803e-21
6.65239449153714e-21
5.83251583482439e-23
1.31621618563602e-21
1.02547910059172e-21
2.00158083052914e-21
1.380023808819e-20
3.29750256549948e-21
5.14949964427955e-21
1.54341262095055e-20
4.28285014441971e-21
2.17936609428405e-21
2.43413273739221e-21
5.70853905532633e-22
1.54408441626557e-21
4.94678278072819e-21
3.25625733202772e-21
8.26696227554641e-21
2.10911949901191e-21
7.43407924124673e-21
1.95964412547564e-21
8.42561470133007e-22
1.6171194362819e-21
8.82433088629e-22
1.0423685892935e-21
2.83070960092185e-21
1.32598386641521e-20
1.97647161187516e-21
3.24421873989915e-21
1.96560084743807e-20
4.67103173388384e-21
6.19683577330498e-21
1.10116905880326e-21
5.14558939299905e-21
1.99006086709208e-21
7.57035719292338e-21
3.35344071885735e-21
6.62037661300585e-22
3.17225003698776e-21
7.6020337825824e-21
2.04872995918196e-21
8.43182439099899e-21
1.38641402576874e-22
1.92581401083767e-21
3.53359135539625e-22
1.09709518640577e-21
7.21611124681141e-21
1.83905602121406e-21
3.23937947743659e-21
8.99233418165216e-21
8.86946866036914e-21
1.77757957273573e-20
1.17331200350725e-20
1.45888355764681e-21
3.4323453897947e-22
8.13531670906956e-21
5.75562390349004e-22
5.27101213129481e-21
2.15404546471974e-21
2.93937317410348e-21
7.79463716638157e-22
1.29788324486602e-21
7.21173649768535e-22
9.98524189530726e-21
2.50980463345612e-21
5.76278372077088e-22
1.05463176554932e-21
9.22916660992282e-21
2.0492877733721e-21
6.82931842283794e-21
1.15624373200198e-20
8.2099756813161e-22
1.07809288341479e-20
6.36758296579879e-22
2.56018559518799e-22
1.71991049323637e-21
8.20432817197645e-22
6.36899242474357e-22
5.2311163266323e-21
1.46988551411836e-21
5.71543881088139e-21
3.38511910591238e-22
5.79065439810678e-22
2.80307719631513e-21
2.6325725439919e-21
2.60857201351499e-21
1.70588718016662e-22
4.4643814368941e-21
7.95221801148067e-23
3.15607356555876e-21
3.13761911600448e-21
2.60246731873566e-21
1.71304942505644e-22
1.16407821790202e-20
1.41615984750841e-22
5.19335552521059e-22
8.08009831410185e-21
4.56309481173527e-21
9.0096485636723e-21
2.93213662917453e-22
5.55743899864039e-22
7.63978491249731e-21
4.88642625551368e-22
2.40585474763232e-21
1.13056674842612e-21
5.37960658253824e-21
1.12559326944757e-22
3.27595808844106e-22
8.94144633368457e-21
8.96359065225495e-22
3.6450259050505e-22
5.57171978696585e-22
4.64872423739259e-22
8.8192735564066e-22
4.16624996169756e-21
3.26135231242537e-21
4.23485128276855e-21
1.4035905288633e-21
2.29810799302753e-21
5.97105970230672e-21
1.04474150743559e-21
7.81661772454421e-21
1.69382327959783e-20
1.16835744717325e-21
2.32679811091462e-21
1.51298194174222e-22
2.92200945527929e-21
1.07241901973618e-22
1.04720176619369e-21
1.79157212875199e-21
5.14256437479764e-21
3.54353931389071e-21
3.20752470975184e-22
4.41816060777558e-23
2.70916388700709e-21
3.37777240522926e-21
1.15553133633173e-21
2.31381882334645e-21
2.13483254103373e-21
1.01249729755454e-20
4.76232328064626e-21
6.1108683866834e-21
2.08589010533551e-21
3.74291466360857e-21
2.17837630351299e-21
2.15964407194735e-21
3.76246798588122e-22
4.06964093149018e-21
4.75729412861163e-22
2.0832056311375e-21
1.76259643057804e-21
3.18054419156752e-21
1.98909884481696e-21
2.45559585377123e-21
2.3035152608692e-21
2.09415998023731e-22
2.03177323663662e-21
6.3173837210997e-21
3.90877137463139e-21
7.8893533482003e-22
2.07137091092548e-21
8.29114627783437e-21
1.27764616045452e-21
3.40143704605655e-21
1.4079862052518e-21
8.7085289125293e-22
4.96130501425654e-23
1.04542093322043e-21
6.70785353608063e-21
3.23649551787303e-21
1.73721660705891e-22
3.35647555352905e-21
6.83475647744004e-22
7.19164062351984e-21
1.70115180694382e-21
5.80685311101719e-21
5.31442620965123e-21
1.21151772027696e-20
4.98819956899646e-22
4.56515725634531e-22
3.63576913635857e-21
4.41942231634132e-22
6.8027035377672e-21
6.58664484239081e-21
5.05517195284046e-21
1.13797996129696e-20
1.88577731505551e-21
1.10733855877778e-22
3.04828005694582e-21
1.41696577197242e-22
1.3613367002725e-21
3.36069314226898e-21
3.26196678410467e-21
2.30819505708049e-21
5.16774315242933e-21
1.7867088362121e-21
9.72844290221604e-23
7.60825731316181e-24
3.45391764361888e-21
1.77554403364694e-21
8.67654017607081e-22
3.28257659692583e-21
2.89837810018489e-22
7.30925229234056e-21
3.4136429001145e-21
4.7286377182067e-22
3.03832790044504e-21
1.98439838045835e-21
1.15435882208795e-20
4.58919553124767e-21
5.3051295487241e-21
1.24199938427574e-21
6.44005709913302e-21
1.71436257307476e-21
1.09027773212266e-20
3.96810930637175e-21
7.45683108355125e-21
3.72308295360309e-21
4.2765380072191e-22
1.67204525756535e-21
8.15659104790295e-22
1.12594383778896e-21
2.84634028167278e-21
3.40056787892416e-21
2.67994479120846e-21
3.47015783250938e-21
2.49492903977867e-21
2.55806557839288e-21
9.99500591296265e-22
3.20648561879961e-22
2.5990685001901e-21
1.1258527369593e-21
2.44136615064423e-21
6.15979341945269e-21
1.61790194150233e-21
1.80428022127134e-21
2.35330318253431e-20
6.07230742550154e-22
3.95379472774343e-21
9.44502066406877e-22
2.35429875316354e-21
3.29745147743578e-21
3.85252986355033e-21
3.94962890388465e-21
2.51953659564754e-21
6.74029677541312e-21
4.49478273078879e-21
3.97419213596371e-21
4.85808248010234e-21
2.00307012964558e-22
8.12419088952166e-21
7.87539334253451e-22
5.32276740265621e-21
1.14511720310116e-20
3.55491338630007e-22
2.35662390004921e-22
4.17669793911792e-22
1.32379602754888e-20
1.0998822328971e-20
5.07626624075623e-21
2.30798729002163e-21
4.71388564276874e-23
5.06360049961086e-21
4.12190012675106e-21
1.30283031260755e-20
1.0153959573908e-21
1.43655345344674e-21
2.634427271268e-21
2.83336286554054e-21
4.10718160312683e-21
8.65488875850719e-21
1.64685060400028e-21
2.30853308764299e-21
5.86344669913328e-21
7.66083457060829e-21
4.8307174367303e-21
1.27344251985127e-21
7.82581700789142e-21
7.14719832879465e-21
1.54972781451617e-21
1.65650296007838e-21
4.05071308657772e-21
1.68636986621543e-24
4.40744444881632e-21
7.30460539064064e-21
1.20071293689849e-20
3.5745782619699e-21
8.41119210229763e-23
2.36530717067328e-21
1.0227892966694e-20
1.30222009151654e-20
1.83321835758961e-22
9.05595442561682e-21
1.96997391168361e-22
1.5266712084107e-21
6.83660196209038e-21
1.1403876859306e-21
6.70135526339174e-22
5.53947020962986e-21
1.06070679783554e-20
2.32681441152032e-21
8.41765690504491e-22
1.73583401614195e-21
2.09772253456326e-20
1.86932385083058e-22
3.3941583146848e-21
5.0113282894974e-22
5.6057759451576e-22
5.41269008609148e-21
8.2638725619045e-22
5.53076853091089e-21
2.96110787713375e-21
2.70846817016283e-21
8.12921384726774e-22
9.79811310632112e-21
6.41336497144268e-21
5.64122096326783e-21
6.04973950818966e-21
7.9460043783942e-22
3.98714363118864e-21
5.72776807236008e-21
7.86390042791184e-22
4.65100306338564e-21
1.25401103224424e-21
5.87395817822098e-21
4.54516663431741e-21
3.23212791073342e-21
1.12471494743736e-20
2.88789707066379e-21
2.5104453836983e-21
9.6429880284216e-22
4.18142940433045e-21
4.78194115865245e-21
7.21656917688469e-22
2.02080065850554e-21
1.95728394145292e-21
3.80207162600219e-22
4.83888627892616e-21
1.43894809553728e-20
1.19134310931533e-21
3.62354058605475e-21
4.09318816066733e-22
2.64342990163064e-21
1.27599257770158e-20
6.27314176518552e-21
2.58448331892503e-20
4.91088654754208e-22
3.28423429792874e-21
6.97661481923012e-21
1.03893694867319e-21
8.14568509777184e-21
1.318352234301e-21
2.10802281282613e-20
4.22487342384219e-21
2.16339090333885e-21
1.01542982571239e-21
3.57984989810697e-23
2.56182766838869e-21
7.2701011538958e-22
4.44016277200766e-21
9.18144409219967e-21
1.61772517148299e-20
1.55639857911151e-21
2.62920732506614e-22
9.92633996571748e-22
2.30065318538303e-22
4.4928418925501e-21
9.07335794989322e-21
4.03026672040922e-21
4.0023220159625e-21
1.19446649152945e-21
1.00467139822627e-20
5.13475534838362e-21
9.30343169685364e-23
2.24505640292558e-22
5.4248806263404e-21
5.15941788564788e-21
6.20765771098248e-21
8.52231145148482e-21
6.06364730617458e-21
1.29408814094466e-20
5.18420937931076e-21
1.54266372601702e-21
1.21945205325287e-21
2.04175914807257e-21
1.03630545596883e-20
9.43652984530244e-22
1.90980120480836e-21
4.57042957567023e-21
1.80011614760984e-21
3.91300299053846e-21
2.51099987356363e-21
6.12205487496738e-21
1.28030978352541e-20
4.66072759682409e-23
6.00490044682884e-21
3.50449515840431e-21
3.99696878282454e-21
6.66583606492721e-22
1.11732331967034e-20
2.88468816822505e-21
2.92113509801282e-21
4.58379737347762e-21
3.87013811147443e-21
9.91762807720891e-21
1.05402375362644e-20
6.64216945803692e-21
5.72304821066772e-22
1.42024931701073e-20
2.03162811134153e-20
3.4075471987401e-21
6.04175822955692e-21
8.60466600234544e-21
3.80851708328068e-21
3.39237452714663e-23
6.70656060684299e-21
1.4491824836785e-21
1.67944523232525e-22
5.81289218759008e-21
3.89941062455603e-21
1.98172714964344e-21
1.34111538482936e-22
6.45665444048209e-21
1.09045407714492e-21
5.96066996685675e-21
1.97789673851736e-21
3.49631633831714e-21
4.49611345905028e-21
2.41055964093432e-21
1.07397037346652e-21
9.63830042791496e-22
1.87173446417864e-20
2.08877385636608e-21
8.54060515445507e-22
5.29501818136557e-21
5.35132173676347e-21
4.50593328461888e-21
1.88000757372262e-20
1.16262784220919e-20
4.64818027250942e-22
1.16599366346611e-20
8.35203859313623e-22
6.10743496533211e-22
1.56634599256056e-21
9.13504503537246e-21
5.59017182297217e-21
3.45038761471086e-21
2.92430739090242e-21
1.97559683046312e-21
5.53469979014005e-21
2.29281071622436e-21
2.73645214874614e-21
4.63362344944241e-21
1.87624628669219e-21
5.28284457342013e-21
8.17111110441424e-22
1.92704377874678e-21
6.53916042658374e-21
3.43267551570079e-21
2.36409638644347e-21
4.62805454101081e-21
6.63946687415513e-21
4.46695190657064e-22
4.32263545797184e-21
7.72472567863129e-21
1.1305933004546e-21
9.36066645283514e-22
4.16157396530128e-21
1.26842907992328e-21
3.71931033387593e-21
5.92004164621935e-21
4.48543313779752e-21
4.31902916756307e-22
6.64735262785687e-21
7.20076431006203e-22
7.50445838313239e-21
1.47615312035503e-21
1.02204802654285e-20
1.63136026900435e-21
2.20160113825059e-22
2.91812279400159e-21
4.10353433488771e-21
1.14094419082387e-20
4.61139358662056e-21
9.73184494624128e-22
3.58822223589575e-21
2.38652258740113e-21
5.51552547205061e-21
3.11124553602622e-21
2.32790326404428e-21
2.13201834076945e-22
7.83462767735739e-22
5.23189559585635e-21
5.97422331799704e-22
3.00207285708248e-21
6.20974512211794e-21
9.05115173484111e-22
8.65023084382406e-21
6.53611160233047e-22
1.24304290124733e-21
1.48295561750617e-21
2.96350070944976e-22
7.51297129894705e-24
7.73389719322951e-22
1.93597454146299e-21
8.78385080268065e-21
1.63112035184748e-21
7.50584131312157e-21
4.60915151159136e-21
1.08460899527773e-21
1.09355951810529e-20
5.4663741774028e-21
6.25981442153842e-22
1.22598912171046e-22
4.16738743860768e-21
3.50401341128357e-21
2.71676757987501e-21
3.73363890872545e-21
2.10594045976973e-21
1.03257832707358e-20
1.35546319585954e-21
4.60088579376847e-21
1.16810543879627e-21
1.65439340078373e-20
1.00302455222105e-20
1.72192792379201e-21
1.87350671276582e-22
2.43441345883719e-21
1.07250326966527e-20
5.35502217352505e-21
9.37756910399482e-21
2.08167942658016e-21
1.22780435636302e-21
1.3557616999693e-21
3.59152109559868e-22
2.70767455704688e-21
1.88059360167402e-21
2.99284013367736e-21
3.89590543197702e-21
8.11021973114791e-21
1.62790025807203e-21
4.39488602636898e-21
4.53242710323709e-21
8.59534815541229e-21
1.8559394085522e-22
1.88930926817821e-20
5.11861835172263e-21
1.78577871048714e-21
2.08693209338145e-21
9.05024117030852e-21
8.9114463286489e-21
5.63121584017052e-21
1.08900733831479e-22
3.93628890068478e-21
1.4868857556282e-21
7.00381764277158e-21
4.2327507364167e-22
1.16917356390016e-20
3.32096746104306e-21
8.46627610052134e-21
1.50630753025064e-21
1.46264791994147e-20
1.06040700195744e-20
6.04623545800916e-21
2.45715911377411e-21
1.68261116267078e-21
1.68989304762727e-21
3.76940214223229e-21
1.67171495285544e-21
7.91916336023187e-22
3.51875698875007e-21
9.93059835820701e-23
8.78576104903594e-22
3.4218712148577e-21
2.38493693475545e-21
2.77073646645299e-21
4.43621218046575e-21
9.46602500206571e-22
1.25432577250572e-21
1.82960122889015e-21
6.68052216547808e-21
3.2079800978664e-21
7.45505110186532e-22
4.50484600429647e-21
7.0656187500888e-23
2.47171694160627e-21
8.93339230571145e-21
2.20160755932785e-21
9.15999208811294e-21
2.42400170827455e-21
4.996622143533e-21
2.45884175078566e-21
4.85750740324786e-21
7.71741532626199e-22
5.57092797114034e-21
8.64016558329641e-21
1.97100185087679e-21
1.0951758430353e-21
3.24350079889572e-21
2.3596505567193e-22
5.09095464824184e-21
6.6349606569871e-21
6.65358741236489e-22
1.57182019157881e-21
1.51502887803636e-20
1.0498279728664e-20
1.66072977934166e-22
3.55323496537206e-21
5.39303511750666e-21
1.18532989582436e-20
4.74203206444535e-21
7.07942688058636e-21
7.43599989393848e-22
2.98970791932494e-22
1.09807585767666e-21
1.23399752453454e-21
1.78911301390662e-21
1.67262823339226e-21
4.38596462831214e-21
1.99273877775834e-21
1.31520353949627e-21
5.80872291641196e-21
2.68148907400046e-21
3.56628799389447e-21
5.46147340396746e-21
3.30130817828725e-21
2.35833810131086e-21
7.16602740698878e-21
2.69166572842637e-21
3.18173290299979e-21
6.52928849326606e-21
6.36748762283131e-21
1.84816298643115e-21
1.01892804215412e-20
1.11788356547518e-20
6.6914773254211e-21
1.35354144421507e-20
9.5019632296746e-23
2.52114488324706e-21
2.31646149488028e-21
3.41414920929999e-21
1.17166326851172e-21
4.67044519577963e-21
3.76174363581095e-21
3.16109948785636e-21
4.32282032634682e-21
2.64872186670773e-21
2.25560211515997e-21
6.45565670722869e-22
4.61517081983555e-22
1.9460227586717e-21
4.04457202147184e-21
1.97201327478764e-21
3.242129804032e-21
6.8869421753264e-22
8.11668327860135e-21
1.84398643334133e-21
1.34697928949626e-21
1.41816631472766e-20
9.32352749259646e-22
8.0203721648466e-21
1.00385004329773e-20
2.88049458872692e-21
5.4295361145081e-21
2.38931078661404e-21
4.49511516009498e-21
1.2047899317865e-21
3.50431306506986e-21
2.83341538096614e-21
2.56856260052913e-20
6.90756619757797e-21
1.35578060351912e-21
1.56774155791303e-22
5.89111609399683e-21
5.93105617236064e-21
6.9150304566347e-21
4.84311597622377e-22
4.91055220914825e-21
3.1180947635138e-22
3.54604219848324e-23
8.08442604666039e-21
8.15626772487909e-22
5.67682746364797e-21
1.98436547610808e-21
3.97513304492729e-21
8.2414332742968e-21
8.8104114458475e-23
3.27066027569553e-21
6.77972107267409e-21
1.23084651232795e-20
7.87081420412798e-21
3.80899499818655e-21
7.21434089788402e-21
2.39733746951847e-21
2.03671377413778e-21
2.89420301414682e-21
1.97761917743525e-21
1.55882699348669e-20
2.74975464746782e-21
6.46257878587508e-22
4.41496540657612e-21
1.74800766950509e-21
5.78218363610844e-21
2.15623315367735e-21
5.80320820828174e-22
1.33787067899843e-20
7.4762158984273e-22
1.30462248219087e-21
1.94169231733545e-21
8.50197791221489e-21
7.74046400535199e-21
1.11583409425038e-21
4.79047966216613e-22
5.93226157132973e-21
2.47006139430719e-22
4.24849085340518e-21
2.608907257528e-23
1.70946558673984e-21
3.18702716857202e-21
7.00364545027718e-22
1.71352485744685e-22
6.6434891473979e-21
1.39683586109663e-21
5.092380527733e-22
6.33773388747054e-22
6.99925630320623e-21
3.67918307248031e-22
2.31598118122064e-21
5.03208658878756e-22
7.64118447179617e-22
6.83041895744098e-23
1.49989478601406e-20
5.67401078116619e-22
6.52937893132188e-21
2.12466756995909e-21
2.0575055665885e-21
2.21486671567851e-21
9.3854591918336e-22
4.2350607728762e-22
5.05735743309305e-21
3.19242824711417e-21
4.41894675122248e-21
6.83600100158248e-21
9.30568988832485e-21
5.44805416159966e-22
2.65219732730091e-21
1.40628220844519e-21
2.49162224739731e-21
4.28288803328685e-21
5.46617404583613e-21
8.35857519166904e-21
2.88786477927011e-21
6.7353177593082e-21
8.4206030028008e-21
2.54210396300251e-21
8.42410720793187e-21
9.00267727152337e-22
7.81406060649603e-21
1.05857044112834e-20
1.09615790056006e-20
3.82014936882808e-22
3.18651798845377e-21
5.39375591465508e-21
1.74658091375104e-20
3.15878646929265e-21
1.20113799925092e-20
2.96985249464647e-21
1.33019317706122e-21
1.11951164546099e-20
1.29150575561088e-20
1.5146970676905e-22
3.42317662557083e-21
2.50217390278895e-21
4.60881865850289e-21
2.90854056089554e-21
6.21087568816047e-21
5.09069850961134e-21
1.41230651499655e-21
9.27324790586255e-22
7.91754787032434e-23
2.84294337732302e-21
8.30073175388679e-21
3.41912034017315e-21
1.6655967654761e-21
5.78251961277991e-21
2.41797754854395e-21
1.01291526818913e-21
1.77180365075505e-21
3.48669422790351e-21
3.66691392881847e-21
3.41448900579407e-21
1.10095077171765e-20
3.78471757237158e-21
3.14762975450467e-21
1.87331571771269e-21
3.78871284289877e-21
5.56817958581085e-22
3.6773261487375e-21
1.87734009625566e-21
1.32805240743249e-21
2.65771940721751e-21
6.75606756879131e-22
1.97425609793692e-21
1.11010853685485e-20
3.72408655038085e-22
8.34396680135519e-21
2.17163571115135e-22
4.82209915724345e-21
3.38772255696711e-21
1.72664887335644e-22
9.69268287547092e-22
3.52756219982092e-21
3.4582198847766e-21
4.26340605229784e-21
1.29808591770158e-21
1.11997754240127e-20
1.86442533244423e-21
1.16132005893133e-20
1.19822971863489e-21
2.3424182326878e-21
1.19272326498267e-21
1.42659503293409e-21
9.35513453453317e-21
5.37767292934463e-22
6.08611415597345e-21
4.76574431530183e-22
9.51519236529208e-21
2.39218015775534e-21
9.57770629516402e-21
1.69988295266705e-21
6.72029478990723e-21
1.36156434444437e-21
3.37654088406421e-21
9.48038549717502e-23
8.10910923784627e-22
1.99889041716261e-22
3.61707580600707e-21
9.93013147833934e-21
2.23078962300351e-21
4.59477094070354e-21
7.56094911459123e-22
2.76699918598498e-21
1.17986993560036e-20
1.91748592987236e-21
6.76064408554532e-21
4.03600601772949e-21
3.35734327711554e-21
3.22340900474365e-21
2.32817179139146e-21
7.050437422679e-21
3.29818620049918e-21
4.01015466174514e-21
3.74163522149499e-21
2.22349034784647e-21
7.00193085202156e-21
1.17897902524169e-21
2.75731479864367e-22
5.26951791289874e-21
2.77095846414576e-21
2.7070476543416e-21
3.01787244692273e-23
7.09878410255499e-22
3.23394125157365e-21
1.04402013111695e-21
3.88016119673971e-21
1.27820291009268e-21
2.52768463856788e-22
2.38526112501913e-21
2.55404047715115e-21
5.76443212615198e-21
3.76617426285088e-22
1.36780444729189e-22
1.26512860223574e-21
5.31537473864191e-22
1.17895462499323e-20
5.89872539604455e-21
1.12827331236396e-22
2.67799336556748e-21
5.29557785382611e-21
1.16965944557931e-20
9.08147323293783e-22
2.38788497331159e-21
4.92069240587462e-21
3.4046221939714e-22
7.22844926301698e-22
8.70267810505037e-21
2.10004702158506e-20
7.5800395169839e-21
4.68843440685129e-22
1.80183358367515e-22
1.88512515555849e-20
3.06566003989837e-21
5.49078055463652e-22
6.92480376454175e-21
1.53560473487391e-22
1.18088513886854e-21
3.85604745177859e-21
7.09694109508344e-21
4.39282460618582e-21
1.01186073187309e-20
3.37627671150118e-21
1.16200215392843e-22
5.95326628414644e-21
1.2920396206776e-21
2.24056574958357e-21
1.18398808427621e-21
3.2319215181299e-21
2.67128086647773e-21
2.3475554182944e-20
1.04985351945803e-20
4.64871623182801e-22
2.50880331542601e-21
1.67047441634504e-22
3.63750656005759e-21
1.21154086076495e-21
7.06347514628675e-21
7.2822073821503e-21
3.28647417921e-21
1.48548231016708e-21
4.12923632188489e-21
9.38805067207727e-22
5.71414790750521e-22
2.44077603959562e-20
6.00947712410685e-22
6.56315218497632e-21
1.29842360136091e-20
2.45201600327805e-21
5.83283157576575e-21
1.00788719311264e-20
2.41290848454786e-21
7.10327863660021e-22
1.13435709836163e-21
6.3134770865522e-21
5.29953837184167e-21
2.94431649608774e-21
1.41109188370028e-21
7.62185478947927e-21
4.28995961588166e-21
1.01405731197634e-20
1.42829758163599e-21
1.28811339210719e-20
3.63809062614273e-22
1.29221173247e-21
4.85530367719747e-21
5.65388736172256e-21
1.87987314691619e-21
4.13427366590396e-21
5.89588120397472e-21
4.5462501529616e-21
5.2666842554976e-21
2.12893470418416e-20
2.59627807689018e-21
3.02794292375933e-21
1.17953595841672e-21
2.71887185219294e-21
2.67255036307863e-21
3.59550486064549e-21
6.67611006223453e-21
8.93604046028455e-21
1.69850195814109e-21
1.69919804608549e-21
1.01235491227552e-20
1.44791744099395e-20
3.87966074821495e-21
1.90255415435342e-21
1.0922267805203e-20
7.72796991479257e-21
9.74451691845988e-22
4.65733377757005e-21
2.83842163340115e-22
6.46683799557868e-21
2.5387587452473e-21
1.69303630153248e-20
3.05727860039885e-21
8.14449742769436e-21
8.90719636131059e-22
2.7977505162594e-21
1.10109851535008e-20
1.13255426692003e-20
2.58546504572881e-21
6.01768261071169e-21
8.58429459241484e-22
2.148774808978e-21
1.40220687851927e-21
2.45914225994783e-21
7.95507186471598e-23
1.17016087873403e-20
3.52374865398313e-22
7.97126999054525e-21
2.07659520143086e-23
1.83932383975903e-21
1.81607928844581e-21
1.8797246760111e-21
9.55979524665537e-22
1.05098864295493e-20
8.04775943099792e-21
2.69150271670173e-21
4.72239138612349e-21
3.65648494130537e-21
4.68371664582176e-22
1.64423094357752e-20
3.32879899935014e-22
7.97107851547584e-21
5.99947150823395e-23
4.87612879139814e-21
4.3751719068764e-21
7.92406036235596e-21
1.64036420971474e-21
1.18469399635823e-20
8.1874448666071e-21
9.37954735764363e-22
7.90112654227877e-21
1.80315375008433e-21
1.72871384508385e-22
1.40739437753755e-21
1.8221545781214e-22
2.17877130368195e-21
2.01712982729616e-21