/*--------------------------------*- C++ -*----------------------------------*\
  =========                 |
  \\      /  F ield         | OpenFOAM: The Open Source CFD Toolbox
   \\    /   O peration     | Website:  https://openfoam.org
    \\  /    A nd           | Version:  7
     \\/     M anipulation  |
\*---------------------------------------------------------------------------*/
FoamFile
{
    version     2.0;
    format      ascii;
    class       scalarField;
    location    "0/lagrangian/dsmc";
    object      Ei;
}
// * * * * * * * * * * * * * * * * * * * * * * * * * * * * * * * * * * * * * //


10852
(
5.52742523892115e-22
5.98613606739338e-21
3.69540836918286e-21
5.99436024683104e-23
4.05324950562783e-21
8.81170610341239e-23
8.10143996073552e-21
8.55609372926964e-22
4.76410508019337e-21
1.23691662035504e-21
4.06365974982208e-21
2.08588975274464e-21
3.36340272007266e-21
1.02084371786735e-20
4.30662642641394e-21
1.11851747778463e-20
9.49699217873876e-22
4.8946334301627e-21
1.04151107230321e-20
2.92733607291121e-21
1.26311240854109e-20
3.29864782999825e-21
8.36223171851629e-22
3.54201226058337e-21
2.56070609572963e-21
1.09340913541603e-20
2.884588220622e-22
1.09021540801993e-20
4.2305536314905e-21
2.56613109967004e-22
5.25427040257377e-21
1.7671925163417e-21
4.86178762311885e-21
1.16351291381565e-21
3.0141420061676e-21
1.65030212201271e-22
5.40615475195569e-22
3.95650704044659e-21
7.00536717405648e-21
3.03073245115167e-21
1.36671556072684e-20
3.80245249917352e-22
2.34926755985625e-21
2.68604106929245e-21
4.73098123678034e-21
4.66533323354425e-21
9.00230554252213e-21
1.20117284163092e-20
4.57812408940979e-21
4.72781771940512e-21
3.72209551224824e-21
1.07881926916777e-21
2.89411332252058e-21
7.77689401728024e-21
3.63152700167233e-21
3.60469509196505e-21
2.55873791637907e-21
1.84907237056277e-21
9.78344841096755e-21
5.05383399401522e-21
5.27957708399067e-21
4.90780781751752e-21
3.70421868362449e-21
1.67103938481158e-20
1.8818754778322e-21
4.01198711551321e-21
4.46780849358278e-21
5.01263452088769e-22
2.81543866627051e-21
6.20537297732319e-21
1.47560349395577e-20
1.80769002246482e-21
8.00040016956067e-21
1.23551813528042e-21
4.5560679290458e-21
9.41951251951682e-21
1.85833380984305e-21
1.69425138932234e-20
1.21072422423541e-21
4.88289715871545e-21
3.69505455853781e-22
4.28736444213994e-22
9.64593180182496e-21
1.40676561798655e-21
1.07812856847109e-20
9.15011740507642e-21
1.41057883924821e-20
1.19917924072995e-20
1.36787250724527e-22
9.6315000863862e-21
1.04593026344402e-21
1.28564370979588e-20
5.16312900390669e-22
3.36820222173347e-21
3.66787522196945e-21
3.14611323804241e-21
9.1126019607878e-21
7.03444407616498e-22
1.95814194870661e-20
1.54296050449861e-21
3.61101935670531e-21
1.15015244409775e-21
7.2684493255613e-21
2.89643265949297e-20
9.96514258553197e-21
1.10363273468947e-20
8.19760643794963e-21
8.36132444653107e-21
2.1345931288422e-21
3.95416165541775e-21
4.72660144898434e-22
7.67376326193845e-22
4.06104238521913e-21
8.09214430653118e-22
2.69761268783798e-21
5.31487825526976e-21
5.05506461005806e-21
6.73407867647844e-21
1.59367924266382e-20
4.35653561230861e-21
4.41728366662138e-21
6.30039989178912e-21
5.50898699919882e-22
1.07846161776115e-20
7.75552837386494e-21
3.90358744003636e-21
3.5503737472315e-21
2.43814930613038e-21
1.49412840287708e-21
1.79512875582517e-20
4.8140381957019e-21
1.32617361032482e-20
4.18006693132058e-21
3.94120491178689e-21
4.05687728718282e-21
1.93311794306936e-21
3.24870605793073e-24
2.81872230207915e-22
4.858661006085e-21
3.40419863685716e-21
5.03709717094368e-21
8.78777584582967e-22
1.81858744336101e-21
3.56742574159715e-21
1.25182503678976e-20
4.31218592666464e-21
6.63653638469799e-21
1.31693801767288e-20
1.32640262799986e-20
3.94265042538594e-21
8.04958479178626e-21
3.73728431126228e-21
1.37634265875685e-21
1.04369509414038e-20
8.46562613292353e-22
1.77742259632138e-22
1.99671614086522e-21
1.0339810938797e-21
1.34869487315747e-21
6.35232175143961e-22
3.81198088928322e-21
8.81929500995769e-21
1.26384630831096e-21
8.60480981840027e-21
6.76808743100548e-22
3.08773069247476e-20
2.01718254856094e-21
3.89994811879767e-21
1.899139230885e-22
4.21711915496352e-21
2.29893721226991e-22
1.08229029121929e-21
1.65869842821336e-20
3.28501221525955e-21
7.89845024239024e-21
7.6940841818559e-22
1.45305200223228e-22
1.22226883306086e-21
1.4662926368088e-21
5.07682898254062e-21
2.15991867777605e-21
2.54848481635235e-21
9.2444049894325e-22
6.60412008088234e-21
1.41890108498224e-20
8.10922005902987e-21
4.87153328839363e-21
3.61701548426906e-22
2.34455851072564e-21
7.86817038287314e-22
5.45154481308395e-21
2.77485312122718e-21
1.39470942240047e-21
3.87225009522904e-21
1.13382620467479e-21
2.43563521890862e-20
2.68342324486346e-20
4.04934991531917e-21
6.8079286783846e-21
3.6454093419588e-22
3.25469727953182e-21
3.64418630060991e-22
5.36098242577796e-22
6.22459270186463e-21
1.7371600814669e-20
2.11872132019984e-21
1.20792143998479e-20
1.1283502115641e-21
6.1930439260297e-21
2.17820993417141e-21
7.11317379107785e-21
9.00683121136392e-21
2.94944093494475e-21
5.57658254982165e-21
2.21639830226862e-21
1.52630058528176e-21
1.2215952066951e-20
1.50197330848647e-21
7.52290003804327e-21
5.60491337833371e-21
3.26154966772271e-21
8.72143765962776e-21
1.20307212433291e-20
5.98497044268542e-21
2.93369813986088e-21
1.23687913957036e-21
7.24493342998061e-21
1.28745328478926e-20
8.08682144078697e-22
1.47358839465217e-21
1.08677205022477e-20
6.77118983254958e-21
8.52284103639646e-21
6.30343676109479e-21
1.02429877364326e-20
9.47861249140449e-22
8.22718397972882e-21
7.7941546212709e-21
1.47331653481451e-21
9.46813496388555e-21
3.8148077312512e-21
1.41179306691542e-20
1.09602599352803e-22
2.25498128003615e-21
2.11012945887753e-21
1.47317588908167e-20
2.35809672771138e-21
7.2122473276749e-22
2.59650816804222e-21
3.61338956782065e-21
3.33611619082066e-21
6.11863671084236e-21
3.28679082351796e-21
1.70325914917812e-21
2.28091675714485e-21
3.25399237554802e-22
2.67500610348079e-21
3.97582831682508e-21
1.20833918216392e-20
1.95366470658685e-20
1.68654350841838e-21
4.41421709170586e-21
5.77188712394689e-21
2.32165039436665e-22
2.90624414115303e-22
3.65634811572517e-21
1.48838463326041e-21
4.95055992405085e-22
4.81132445117197e-21
7.68162987550563e-23
1.26213795973082e-21
5.66319602050393e-21
5.98905125921007e-21
5.41576473587207e-21
6.3009813877921e-21
6.48338186434511e-22
7.83025210331131e-21
1.56823058192436e-20
9.0277099204121e-21
1.30591384803742e-20
1.93982295739999e-21
4.8894730162491e-21
1.06155673494107e-20
6.11375337268538e-21
1.22916588245374e-20
1.38149740696971e-21
9.40683439542466e-22
3.66897602373197e-20
1.07262501616575e-21
1.20649861681447e-20
2.1193824886897e-21
1.61306504148296e-20
1.7769114769511e-21
4.81048990493454e-21
2.24877775883349e-22
2.74064167225173e-21
4.79938821254856e-21
9.70125619251139e-21
1.58176724056291e-20
3.53818476992449e-21
4.56849173398995e-21
3.68997576355137e-21
9.76624377716875e-21
6.43738915458589e-21
7.43533714532392e-21
5.66372491018193e-21
5.14722938548704e-21
2.36646848424278e-21
7.28634258567526e-22
4.44019781976325e-21
2.52314522619685e-21
3.01980279015614e-21
1.14356738199462e-20
4.35940700816102e-21
6.58311842625987e-21
3.74234559780109e-21
1.72072766549631e-21
1.15804159579286e-20
5.32409298675092e-21
1.12758632976764e-21
5.18849197932567e-21
8.61192709373214e-21
4.3429363539282e-21
1.5083701059328e-21
7.67607741879977e-21
1.01970466360242e-20
9.69284289632666e-21
6.11273975517806e-21
1.137325586367e-20
1.44605217212292e-20
6.4309323304912e-21
4.58088523027278e-22
1.71568790346468e-22
6.67719762739793e-21
1.46597336518766e-21
1.34289556049039e-20
7.49607085966569e-21
4.40779594255568e-21
8.654727420552e-22
4.87974361873838e-21
2.73496695969655e-21
1.16147906058579e-22
6.30316131135731e-21
1.84889641618372e-20
1.03920463931171e-20
3.97296164503138e-21
1.34804411786342e-20
6.30359061600728e-21
1.67861457741799e-20
7.53132094483992e-22
8.46495122973103e-21
7.48628524081789e-21
5.24096224895575e-21
2.15095759280536e-21
4.59844701502187e-21
2.94717727493828e-22
1.62276931653591e-21
5.40044523663427e-21
3.24484250792808e-21
2.39991875952171e-21
1.24015209520264e-20
4.03951588986073e-22
9.60121370219675e-21
4.32084968961789e-21
3.05077227372152e-20
1.51478081720235e-21
3.88983547851085e-21
3.46377057158764e-21
4.65292096945975e-21
1.57268681874634e-21
3.49652115949892e-21
8.80946110930948e-22
1.04548573289512e-22
2.98242336019207e-21
1.0942313000504e-21
3.47101082981854e-21
3.34453285412649e-21
3.14185459540003e-22
2.77287053485271e-21
6.56148995763636e-21
3.98900987392163e-21
1.45396492156173e-20
1.09084319053916e-20
3.16854984947795e-21
1.29458187250852e-20
7.76516350073447e-22
7.05020163021348e-21
8.16131874410563e-21
2.00519617180452e-20
4.1191936720224e-21
9.08076855996125e-21
2.76730186719544e-21
2.80114153629106e-22
3.41332046998988e-21
3.03938001342385e-21
2.8600068429763e-21
4.34226433941837e-22
3.72266533722421e-21
1.45728562851941e-22
1.10094780344677e-21
1.23478887377244e-21
4.82551208887661e-21
7.75980869755688e-21
3.17929880877231e-21
1.64704388769648e-21
5.20720428333149e-21
2.80525299358545e-22
3.51808324690016e-21
4.04345871379485e-21
7.13256039334692e-21
1.05226941782517e-20
2.97937531910619e-21
1.14045514799146e-22
1.18274957887957e-21
2.65645651422362e-21
5.82166657534142e-21
2.9724433514274e-21
1.37493770613219e-20
8.07877875000422e-21
3.37741144610083e-21
7.78711482947529e-22
7.7078771017666e-22
3.98552694265834e-21
4.04760870137368e-21
9.98683067032908e-21
1.84701381502848e-21
2.29166707960391e-21
8.79341591413577e-21
7.94534062746909e-21
2.74436666882844e-20
3.06127842871437e-22
4.17445531576131e-22
2.55233002505841e-22
8.31644500544785e-21
4.01169368306446e-21
3.65853606568423e-21
6.55507736541838e-21
3.47145814233839e-20
7.97688194268183e-22
5.27711169173921e-21
1.31630518481907e-21
6.2864348376086e-22
3.80778342421092e-21
1.44447281590645e-21
2.36267410614036e-21
9.78781026287273e-23
2.55138224564733e-21
3.70043011887176e-21
2.76002191856635e-22
7.49352021607062e-21
1.94422672846876e-21
1.04422273758971e-21
3.43071739172064e-23
2.04374843285193e-21
3.3548208935934e-21
1.70521117607759e-21
3.95074991765852e-21
3.28438638792968e-21
4.06567615646377e-21
2.23155508640266e-21
1.35996591383399e-21
1.06467508452157e-20
1.24270547063391e-21
1.273841019745e-20
3.84029638125049e-21
4.72196360288147e-21
1.43381854267381e-21
2.59677760283468e-20
1.92198630705602e-20
3.70574852617259e-21
7.0575253034628e-21
1.38781192165703e-21
2.34386789238081e-20
3.72170541626558e-21
5.86523679255459e-21
8.38433800551957e-21
3.32277092314532e-21
1.08534116533589e-20
8.67549332262775e-22
4.37078195420295e-21
2.19463832973488e-21
2.7524571445195e-21
1.92997820168212e-20
2.74693576863843e-22
4.19699882606084e-21
2.29354188851825e-20
3.90732913440811e-22
7.29746817814573e-21
1.60108627075504e-20
1.6602998331765e-21
2.12838773205116e-21
7.16178641889003e-21
8.15804360606822e-22
3.33246497146549e-21
6.65421827810058e-21
1.29979315666153e-20
4.24279206987694e-21
1.079889462417e-20
5.66135004010011e-21
1.61593942533098e-21
6.6249910644935e-21
1.71274988949972e-20
3.12767357703954e-21
7.63981174985259e-21
3.57551382755551e-21
2.87632296780515e-21
1.19525302157621e-20
3.93368128182873e-21
1.84993622427396e-20
4.83371923638149e-21
1.23222214210971e-21
2.77137386541321e-21
9.65220067930328e-21
7.17975955631539e-21
1.12014764926819e-21
1.27785868416732e-20
5.73185806821318e-23
1.045158762753e-21
3.84400532174068e-21
6.82184717857743e-21
1.79750912462223e-21
1.46632757560715e-21
7.59274975502325e-22
2.77736506624957e-21
4.20433157832026e-21
9.28061802281104e-21
9.82449429001035e-22
3.70403337714406e-22
1.22094751997785e-21
7.70824950877517e-21
9.44302691537688e-21
1.33229454909364e-21
6.0522996896539e-21
2.00925286107814e-21
1.01660074023981e-20
2.24673783442531e-21
1.21122601833947e-20
9.53229875388127e-22
2.48790616179105e-21
1.04062362228563e-20
8.66282211826338e-21
4.70411915253414e-21
3.25542047558065e-21
2.52791260750775e-20
4.88602251192906e-21
2.26674461178152e-20
1.41422610553891e-21
9.14459155414643e-21
7.95336652218659e-21
2.57596425739241e-21
1.54922428463099e-20
1.09160569684787e-21
6.48502587298016e-21
8.67549831258228e-21
1.840031745092e-20
9.71095733956703e-21
4.86782920319072e-21
4.4674985696854e-21
6.80341417086838e-21
2.17742503108609e-21
1.52447982133925e-20
5.77543873003601e-21
5.64338737040869e-22
1.0084326190165e-20
4.43650299843305e-21
7.40328316991289e-21
7.31158803810027e-21
7.42823662804662e-21
8.64016501107068e-21
1.33735379031531e-21
4.49798623371475e-21
3.68292916378078e-21
2.56035137060014e-21
2.31009857465667e-21
6.19595738548721e-21
1.17657745150533e-21
8.04131322327204e-21
3.34294239591978e-21
9.53947992972311e-22
3.04999178158712e-21
6.03976559805302e-21
1.05583110100779e-20
4.46335662123571e-22
4.76296668614599e-21
1.0297140452653e-21
2.62080112991742e-20
3.73711551714002e-21
3.91519669330442e-21
6.59672381738169e-21
2.48223592802588e-20
1.46822541173768e-21
6.86078585733207e-21
2.41607889120339e-22
5.25382573462107e-21
9.52881032534672e-22
1.94278209005939e-21
6.26672852743917e-21
2.9733776930985e-21
8.82716881734113e-22
2.39097043513892e-20
2.93137479984039e-21
3.26142562231809e-21
6.17154098433087e-22
6.43999535683347e-21
1.1242432521332e-20
3.99901786306067e-21
1.51082098489571e-21
6.05564775137745e-22
7.21080778638885e-21
2.03137969815265e-21
5.77706973183743e-21
5.2965596903686e-21
2.45207469495208e-21
7.19421158969295e-21
9.97793671328787e-21
4.53627499553049e-22
1.56948217554864e-21
3.01485321058362e-21
1.99318660271762e-22
5.03374493310932e-21
2.74479335153174e-21
6.62929160073571e-21
2.66009816777776e-21
1.2045512066512e-21
1.08470889454261e-20
6.48463211322913e-21
7.99276029937635e-21
1.22789677623503e-20
2.87206061962633e-21
7.98999496203611e-21
4.09447297915024e-21
8.09411106133032e-22
1.07939510334067e-20
1.73051099315469e-21
1.27897751914756e-20
1.0066826501984e-20
1.6276565285973e-20
6.18107310798379e-21
7.6837116276945e-22
2.75873740250943e-21
1.23055554798971e-20
6.29563366250345e-21
1.42161133671397e-20
6.75516728630854e-22
9.40000365290691e-22
4.01932696006559e-21
9.52115716602844e-21
6.22866329768179e-21
1.24338376988177e-20
3.63321063220801e-21
8.93088756772033e-21
1.08680157903458e-21
6.97482176884307e-21
4.47367750712289e-21
4.61773502664589e-21
3.21168098083844e-20
1.39846157063146e-21
1.94359652521348e-21
7.72087253080903e-22
3.61075757854579e-23
1.64353355374157e-21
8.80671508822998e-21
7.34681123166117e-23
5.9785184315055e-21
1.48940819676692e-21
5.89161096295494e-21
1.17191722625806e-20
2.91174602055497e-22
8.21984757891735e-21
2.70565777734597e-21
3.46995642498088e-21
9.42723343958112e-21
6.90394541584076e-21
1.61612153555136e-21
1.10356449031736e-20
1.51661157909766e-21
1.85800397784577e-22
8.04448295252961e-21
4.87820501529163e-21
3.61209617981755e-22
2.63960181238197e-21
1.69668873738342e-22
7.40991866485386e-22
2.69918034477486e-21
1.29710052792898e-21
9.84002510596912e-22
8.43444987259368e-21
1.12934888064394e-20
1.14096359867601e-21
7.34932677530345e-21
1.63159113532802e-20
2.58574176615327e-22
1.30380117919197e-21
2.24540484221879e-21
9.00632082424671e-21
9.01123830294338e-21
1.48326918229878e-20
4.42145098094957e-21
6.89716881445952e-21
9.22980679263163e-21
2.83583302760167e-21
2.71937126708091e-20
2.5729557669789e-21
1.48404973091324e-21
1.2356203093745e-21
2.54874981374793e-21
1.4199589509991e-21
1.43719528230788e-21
4.35444227278058e-22
8.66497608732801e-22
1.07453041976167e-20
1.76591547214977e-22
3.72644122538937e-22
1.17569183509925e-21
2.03906403654083e-20
1.06044519030111e-20
7.01700207561545e-21
2.01730925565629e-22
2.31662883784979e-22
1.65001606703762e-20
1.97553574487821e-20
3.0096695485904e-21
2.38876283833599e-21
2.97701833643481e-21
4.72471908518762e-21
9.69424742893942e-21
3.14661234431225e-21
2.07864437260734e-21
5.05461612579703e-21
1.06434231780665e-20
2.34431421530836e-21
1.77019440237767e-20
4.87882780859393e-21
2.84644338804497e-21
2.24563109640989e-20
8.91121831132766e-22
2.99521357886824e-21
8.14782451557787e-21
5.32781306848192e-21
3.86444893990082e-21
1.12595726550373e-21
4.99055288481143e-21
1.94428628240063e-22
2.90450173801732e-21
2.22328614676196e-22
1.20044916862627e-20
8.62531489324501e-22
9.47357441058985e-21
1.21462935343238e-20
1.56696648864713e-21
6.30405271380714e-21
4.24072558875669e-21
6.34350919302262e-21
2.17297006678044e-21
3.2741278050283e-21
2.78763994549758e-22
2.53862221637746e-21
2.79221330698308e-22
8.04511378558391e-21
3.67335493272357e-21
5.2862409796049e-21
3.08289802557094e-21
1.00924632926999e-21
4.48869084678975e-21
1.53870153232372e-21
5.56644873585635e-21
4.73344667861551e-21
1.44732234906747e-21
8.71152623045907e-22
4.9821834989789e-21
6.70605883825484e-21
9.92713553123815e-21
5.2898038269834e-22
1.5134794711684e-21
6.94331196007628e-23
8.29054072606897e-21
7.10181582812806e-22
4.31532735716403e-21
1.17053913505649e-20
5.40147611758037e-21
1.50604190415693e-20
1.63716018259765e-21
9.9863036138619e-22
5.07308977448584e-21
1.02130922447924e-20
5.22366358151201e-22
5.53443199148318e-22
1.76743442457954e-20
5.39040818964898e-21
2.15207947287962e-21
3.00383814217336e-21
1.11324789310017e-21
4.13378969432727e-21
3.39206630495979e-21
3.78855445618357e-21
2.4040586315026e-20
1.08481306819221e-20
3.60640614149645e-21
1.4328695414451e-21
3.71725251715316e-21
1.11426243975581e-21
1.21486350943283e-21
4.54187805324382e-21
7.48081718606341e-21
9.77263460707756e-22
1.45545606630054e-20
8.60969917736275e-22
1.93090324038272e-21
1.32570693454245e-21
3.78140539570043e-21
9.91592644687799e-21
3.07759340944065e-21
1.27643837260454e-21
3.76732840896461e-21
2.3822784482828e-21
3.32589803724124e-22
3.52800310535856e-21
1.83833409225466e-20
6.89022424873521e-22
6.24452869458541e-22
8.26494121467432e-21
5.17494413759237e-21
3.2399932612376e-22
2.5072343877573e-22
2.14705604425391e-21
1.13763443958465e-21
3.09766942358952e-21
9.75543634893168e-21
9.01358384189744e-21
6.30485029094227e-22
4.82869335375153e-21
2.17507537943769e-20
2.06767011888117e-21
1.53914509611727e-20
1.68701140255118e-20
5.83947986428572e-23
1.37437612882139e-20
1.88982292591899e-20
7.02450456784276e-21
3.18476810898801e-21
1.59174157758882e-21
6.54420773738376e-23
1.1564595329166e-20
3.16435713324122e-21
1.09711089756396e-20
7.65837444631619e-21
5.06491504738455e-21
1.24652606046852e-21
2.78100017510055e-21
1.50125845038527e-21
7.19480143612296e-21
6.31018048489614e-21
8.38811759826607e-21
1.16952486555183e-21
1.03235634190223e-21
1.14726546388739e-20
1.4889867690612e-21
1.16205607815938e-20
6.33478572685416e-21
1.95626572101771e-21
3.0350266465885e-21
3.18479937716497e-20
8.21305789260358e-21
6.12990217979712e-23
1.62507808009191e-22
4.94359248255726e-21
7.67034544864946e-22
2.55559327278651e-22
5.27647617022037e-21
1.09371018436306e-21
5.48318381125623e-21
1.76948457802705e-20
1.96600647421724e-21
5.89658198289918e-21
8.46208471604726e-21
1.30718590751729e-20
9.9183821609654e-21
1.66101796967407e-23
2.61800040395816e-21
1.38258178835541e-21
2.0535086447331e-21
5.29892284795161e-21
7.53972949266902e-21
1.97303636195679e-21
1.27199616268615e-21
1.15600685916573e-21
9.35779794308469e-21
5.41294085737897e-22
2.01339604692464e-21
1.70701913026785e-20
3.14216520006561e-22
3.21399173921086e-21
1.11932251618336e-21
1.51971826906258e-21
3.54772751143317e-21
1.52430502292454e-20
3.4291527153636e-21
9.95508429919704e-22
1.00624995268323e-20
5.87299893611438e-21
3.06445604366553e-21
6.51124557678059e-21
6.75665415425911e-22
8.05418456481921e-22
1.33433050657812e-20
4.36196952261381e-21
4.04072858030966e-23
3.51256969502401e-21
3.89363893379925e-21
1.42814378274271e-21
6.25508319324276e-21
4.11134637363707e-21
6.83861418095698e-21
2.3725526331379e-21
7.3367677822951e-22
4.56812756643198e-21
4.42537206230971e-21
2.93190925283436e-21
1.08075193178329e-21
2.38347807896108e-21
1.69464850555376e-20
4.45465384617822e-22
6.79445296865106e-21
2.13251806656893e-22
1.0432800284862e-20
7.28575735562199e-21
2.54143298867479e-21
1.58120932097252e-21
4.32184589003055e-21
5.65958121666482e-21
6.25972982629882e-21
3.46965461398555e-21
3.18635829653166e-21
1.74640030492168e-20
5.57823055627427e-22
2.36395129299085e-21
4.33494241349054e-21
3.08548947914919e-21
2.20629417789271e-21
1.73629345535539e-20
2.46489057057632e-21
4.30989477017027e-21
9.27884955239072e-21
1.03500695361813e-21
7.97531445353796e-21
4.51672564273244e-21
1.54763729890905e-22
3.60810057551504e-21
1.52051691457413e-21
1.08947800352332e-21
4.04973679662922e-21
2.71879105556512e-21
8.58400136530706e-21
1.62503542291772e-21
1.07574004119741e-22
7.28270912390043e-21
2.48627876894815e-21
2.31444535485593e-21
7.45364083098117e-21
3.01177010636994e-21
9.51320314050597e-22
6.66958134071883e-21
2.75756578041317e-22
1.0921412067389e-20
1.85484086337419e-22
6.61052291187312e-21
2.89317569756589e-21
3.98393417712547e-21
6.70624742425439e-22
3.64271632034819e-21
2.43058145717604e-21
1.0838951796357e-21
1.68852957627492e-21
1.43584147625843e-20
3.49342534880598e-22
5.33675676773472e-22
5.77100886191392e-21
9.4732322493427e-21
7.02249507186755e-22
4.86918967467206e-21
8.37723348286082e-21
6.49677687428349e-22
3.47262775089866e-21
3.14633699963186e-22
5.79208843495169e-21
1.69487344304194e-21
1.27883573266358e-21
1.52983987846773e-21
6.06022217908987e-21
1.0034932381884e-20
2.7472280584201e-20
2.27622488066231e-21
2.25811205920082e-21
1.23310015168276e-20
5.88161631206565e-22
1.31406944404261e-20
2.7769398361845e-22
4.6764235984825e-22
2.20026773981464e-21
9.62209223584626e-22
4.00621698407541e-21
1.53113870304924e-21
2.33778914009578e-22
6.95948915431002e-21
7.19199815997287e-21
6.91678340851994e-21
2.01268657668669e-21
3.44004533374922e-21
1.58845747908711e-21
1.18013067128227e-21
6.90261140515906e-22
2.27226727948976e-21
1.43177889384668e-22
9.01607346997346e-21
8.84110760860824e-21
3.44130768412796e-21
6.28976082796236e-21
1.21523871857277e-21
3.44597775856671e-20
2.02965211931623e-21
7.24208434868266e-22
3.41396427605211e-22
7.72045528297971e-22
4.74160675308591e-21
8.23926190684369e-21
9.31955849338698e-21
3.76960823801622e-21
7.49112320610102e-21
1.48569224144858e-20
1.83791212265334e-20
6.41944859781159e-21
7.89500817172041e-22
1.58987063655798e-21
1.30355345055605e-21
1.36178208567729e-20
6.99518247848161e-21
2.60269199090977e-21
2.06325608743029e-21
3.62241807114408e-21
2.30683964181578e-21
1.31509593502925e-21
4.81929527025106e-21
7.29326768137579e-21
3.06753758051071e-22
3.33768523725062e-21
2.73614408818977e-21
1.51340460105544e-20
2.93175250992804e-21
5.33642935461667e-21
1.05526201685647e-20
1.51497685785845e-20
1.09732867404841e-21
1.63898982303611e-20
1.36619702874419e-21
5.09038334096748e-21
7.23317416845387e-21
6.8792238475305e-21
1.45547749559766e-21
8.78913543166864e-24
4.77891678639044e-21
5.2087002529719e-21
1.17211008651288e-20
3.80136017869667e-21
3.97570545421962e-21
2.53977077965674e-22
6.57853462291472e-22
2.49091743228483e-22
8.36049610260115e-21
1.26018765681575e-20
1.25689195553834e-21
7.27077865335913e-21
1.74468037233957e-21
3.56901225333204e-22
7.50266553580407e-21
1.00171765325994e-21
6.09390610089364e-21
1.32106153031241e-21
1.29051001875028e-21
3.34799983141818e-21
4.33489980862906e-21
1.38813316560698e-20
1.70707971136722e-20
7.57744320483835e-21
3.27613425340432e-21
2.01028067580519e-21
2.30335925865239e-20
7.59649020672707e-21
5.32929171043271e-21
8.88778141990294e-22
1.68617735268183e-21
3.34589032578349e-21
3.89484679735043e-21
6.11172983130349e-21
1.53207954046943e-21
3.70151152159932e-21
6.1467130732739e-21
5.55417345652516e-21
1.1427937193428e-21
9.94121098435121e-21
5.72549099741686e-21
2.7242141714979e-20
1.41177962276575e-20
1.66022028153457e-21
1.86478498622387e-20
5.59169467982225e-21
1.04726412117604e-21
1.96023629774916e-20
1.8719246322812e-20
1.14728880031273e-20
5.07802277770758e-21
4.5231660361955e-23
1.39018467413113e-21
1.19501690022343e-21
1.2506701904142e-21
2.62057213559161e-22
1.2988284694439e-22
1.02401419285453e-21
1.61431329765448e-21
2.64230286619125e-21
2.50550616682566e-21
1.45987798461326e-20
8.60887258730945e-21
4.15873170406097e-21
1.45393876952657e-21
1.20161470740139e-21
2.13222844008731e-20
2.08227644261286e-22
1.20298138500538e-20
2.07686691754236e-20
7.7652582458859e-21
3.54696042365774e-21
3.00030942531192e-21
6.30773396608536e-21
1.99719567074297e-21
1.84165563659548e-21
1.50117584398045e-20
8.7243703696868e-23
1.13874735392734e-21
8.10852872377054e-22
1.98332325495388e-21
1.23069189931537e-20
3.30414353672792e-21
7.66822886019662e-21
2.50667676496349e-20
9.08579305384151e-21
1.15023652795097e-21
6.19757369667923e-22
7.54088211905471e-22
3.03901797490093e-21
1.01056468543224e-20
3.08555950493403e-21
1.43413839645197e-20
2.08846132341408e-21
7.40347890983446e-21
1.41504528833146e-21
2.19271374879964e-21
7.38653933248337e-21
1.09473237203544e-20
7.53915306751887e-21
2.63412910728416e-21
5.34456361818738e-22
7.48219324163972e-21
6.0917440643731e-22
4.09349922389922e-21
2.40544402331043e-22
7.3611991266268e-21
1.07182401061476e-21
4.28985017602124e-21
3.76368945646234e-22
7.04379276456018e-21
5.60082694085098e-21
1.77909387557838e-21
7.13025986864937e-21
5.63441930206717e-21
4.26366695228755e-21
9.41636395246286e-21
4.50628678310891e-21
1.08658617985648e-20
1.84205791830111e-21
5.55678514684648e-21
1.58683266715466e-20
5.95593587542751e-22
6.80862030813081e-21
7.81653886267387e-21
1.02996342381751e-20
3.76836110536511e-21
1.2531530779325e-20
3.39729901581367e-21
5.54876528706837e-21
5.32096762389008e-21
1.76767074669782e-21
1.50654660043783e-21
1.8823753041731e-21
9.23877018264215e-21
1.79857726760812e-21
3.46145343353441e-22
3.17828368311051e-21
2.8102350286411e-20
6.15363179679424e-23
7.2725275352189e-22
5.49797027333528e-21
3.44107123129828e-21
3.42536366632053e-21
3.25351775409157e-21
2.29637115171562e-22
4.601069118231e-21
1.17107821873052e-21
3.00620287404459e-21
7.19621524991671e-21
9.32695600426354e-22
7.13843711631928e-21
7.86137486286662e-21
1.24473014940614e-21
1.65568942449305e-20
4.51618701613989e-21
4.78429631452766e-21
1.41422287966896e-21
1.15543430148558e-20
4.27517406772328e-21
3.1038710187257e-21
2.84269112102593e-22
6.21685068842979e-21
2.01273305016081e-21
4.9945319509852e-21
1.45736078452669e-21
4.20971944360992e-22
7.90213552925601e-21
3.93529645316721e-21
1.28879451941512e-20
4.57659222604883e-21
1.75298745744051e-21
2.91428016706857e-21
1.65739053499644e-21
6.23097836729207e-21
2.36441854347031e-21
1.30394135798104e-21
5.14778080483409e-21
1.45378168816714e-21
1.66725060887942e-21
1.25715893419526e-21
3.60323531105263e-20
7.07850320341412e-21
7.32474995853835e-21
2.35722290287691e-22
2.91327143258266e-21
2.50142658759899e-21
1.08055369898055e-20
1.065795040619e-20
6.14553534878848e-21
3.83315519595253e-21
1.73563676550809e-20
3.83934570469689e-21
1.08453216547441e-21
7.61305690975411e-22
1.63465216228061e-22
6.00785003144647e-21
4.67201788171142e-21
6.91384263680329e-21
5.66944449602673e-21
4.97818521163394e-21
1.10322211823223e-21
4.84150165390997e-21
2.72843894420547e-22
4.30126536550902e-21
2.61885322995442e-21
7.1625070894333e-22
3.24842453252044e-21
2.53196208435348e-21
5.20810308964816e-21
1.5462318632895e-21
3.1915070531949e-21
1.36753403053298e-20
9.81352324457926e-21
7.7929354492646e-22
1.39187546333275e-20
3.76021689627317e-21
1.94687011643869e-21
4.99141580931643e-21
1.24850319565738e-20
1.66744341000694e-20
1.6370724751507e-21
1.38094302587404e-20
2.78832506896805e-21
1.6944053975023e-20
2.31636390065804e-21
5.52267307462806e-21
2.50745813556537e-21
3.99045351156982e-21
8.72986848646367e-21
9.9709155896555e-23
6.97920670193668e-21
6.55866803128808e-21
1.68474670054345e-21
1.36289915688893e-20
6.04323613764946e-21
1.04300076063799e-20
5.07500654197581e-21
2.53291491386363e-21
9.88187248447451e-22
6.62704219139688e-21
3.35226087124601e-21
3.08177780095416e-21
1.28398441783724e-21
2.74672839307773e-23
6.32106405065527e-22
5.13364542944386e-21
1.25110698244263e-20
1.65086360500712e-20
7.50828778689402e-21
1.77437912502517e-21
1.40794707526475e-21
5.8812926008551e-21
2.93855078713992e-21
2.56154241074027e-21
7.42227653285872e-21
1.55294937777938e-21
4.4795514622906e-21
1.64603994839424e-20
2.74104204055333e-21
4.5639601959106e-21
2.91801320247528e-20
3.67239605817967e-21
4.42795661472408e-21
4.0464810068402e-21
5.14499910411997e-21
4.05695459137366e-22
8.27963327176807e-21
2.97115128258576e-21
7.9818037739251e-21
7.17933970972909e-22
2.34579493276717e-21
4.09802091111778e-21
8.39193728341579e-21
2.25319073016969e-21
4.02362654672061e-21
9.10210717982995e-21
2.1820793186947e-21
1.35070155055641e-20
1.74068125544838e-20
6.11438716097151e-21
1.17143480653813e-21
5.95915638160662e-21
4.43483546140915e-21
2.07170271120874e-21
1.41394466361541e-20
5.91494957395433e-21
6.68895132514563e-21
8.61477935682745e-21
1.05046071528937e-20
6.74732541773935e-22
3.12639615979657e-21
8.50227926022503e-22
3.07665382167976e-21
4.40887936887261e-21
4.73453211611965e-21
5.23454324067826e-21
8.5821020039937e-22
4.82218814149475e-21
2.24787389190577e-21
2.93547674577046e-21
1.07721040351338e-20
7.05518971078436e-21
2.85761206258558e-21
1.78067831935002e-20
7.92249865468241e-21
2.04319692156165e-21
6.47667653766381e-21
1.02898871016827e-21
6.737848840483e-21
1.58347715193943e-21
4.42162010832543e-21
8.85677685471742e-21
1.88846915144689e-20
2.51618437272757e-21
1.87506718744814e-21
6.73235273305199e-21
4.76032127166196e-22
3.33797150593497e-21
6.71256461749249e-21
2.07042578671181e-20
1.00586510565331e-20
1.06627392810565e-21
9.0753505002443e-22
4.37479124384111e-21
1.62909518872248e-21
2.04635541438584e-21
4.18675226501025e-21
2.15623783481753e-21
4.82106994229581e-21
1.33183561012931e-21
1.58043986109915e-20
6.77910699704049e-21
9.01532779841705e-22
1.65483472152649e-21
1.62531297058235e-20
3.13912900225032e-21
4.56710996419025e-21
5.14504430768603e-21
2.319379312196e-21
4.8341843915688e-21
1.56020126521762e-20
5.2058415588972e-21
5.40792015078675e-21
2.65698503701112e-21
1.75360471932836e-21