/*--------------------------------*- C++ -*----------------------------------*\
  =========                 |
  \\      /  F ield         | OpenFOAM: The Open Source CFD Toolbox
   \\    /   O peration     | Website:  https://openfoam.org
    \\  /    A nd           | Version:  7
     \\/     M anipulation  |
\*---------------------------------------------------------------------------*/
FoamFile
{
    version     2.0;
    format      ascii;
    class       scalarField;
    location    "0/lagrangian/dsmc";
    object      Ei;
}
// * * * * * * * * * * * * * * * * * * * * * * * * * * * * * * * * * * * * * //


109045
(
4.14556892919086e-22
2.0915067383937e-22
3.83124215407779e-21
3.9219446396704e-21
1.41577508270048e-20
6.66392028451705e-21
6.07607997055164e-21
5.89570508544592e-22
1.72615142338605e-21
5.60700480184598e-22
7.57549722388858e-22
8.15097931516066e-21
1.56441731455848e-21
4.11694590055018e-21
7.65632788400511e-21
1.00872612524688e-20
1.77274104121838e-21
1.04486187811147e-20
5.97132052397786e-21
2.89589672565211e-22
1.19904175423086e-20
2.53304711883695e-21
9.47334306405819e-21
9.79184061934265e-22
3.14088636109842e-20
1.65236808272423e-21
6.46957532257952e-21
2.31300397001326e-21
5.24411707408077e-21
8.89442720607894e-21
8.17661556014949e-21
2.4466839075505e-21
4.34147669782913e-21
3.94070280193032e-21
6.72427444812467e-21
1.41958380439908e-21
8.72634685361738e-22
2.7649569037196e-21
1.16386104884984e-21
1.0129242954564e-21
1.31725951162016e-21
3.19003971723045e-21
2.9475256342695e-21
2.98146143176633e-21
2.71259191942119e-21
2.85183937438014e-22
1.82297977398876e-21
3.88604146007638e-21
3.69865564408815e-21
4.15453826384085e-21
3.35106417642238e-23
2.81524194912183e-23
9.00879631223187e-21
1.09449222368338e-23
2.84098015800638e-21
6.32201951097558e-22
2.90679781143921e-21
7.97252241494228e-22
3.44354854414358e-21
4.13957273009987e-22
2.0033475233763e-21
1.36632189182237e-21
1.02432254072459e-21
8.55484496735413e-21
5.56795097487783e-21
3.7178230690403e-21
4.24950552670445e-21
1.4160141119793e-21
1.91037470453796e-21
3.68085586313814e-21
1.5819962828553e-21
2.20597946551509e-21
6.55526297078323e-23
2.21825950737075e-22
8.5436843837082e-21
3.86918626738689e-21
7.65367024614501e-21
2.11157899970288e-21
3.74656515088917e-22
6.62212616502382e-21
4.59055850948112e-22
1.94587717046958e-21
1.0703108316988e-20
1.70153702585766e-21
3.41705094678435e-21
7.06463438963762e-21
1.39375035738229e-21
4.3116806972995e-21
9.08043168176557e-22
5.48840689455393e-21
2.77129091890336e-22
3.21552333160495e-22
4.61751347050918e-21
1.05507421348991e-21
8.08596426353318e-21
4.99836496770403e-22
4.8197672284981e-21
8.99384430547465e-21
1.02590438043395e-22
7.22362506478965e-21
7.84447697583017e-22
1.03557986097902e-20
3.87234675293002e-22
3.56123187726493e-21
9.71401546600386e-22
5.35234407185399e-21
6.83445147059085e-21
5.27583305712374e-22
6.79330161290159e-21
1.15722037837396e-21
1.73665635102075e-21
2.33344946543917e-21
2.93228608095043e-21
2.00449722176203e-21
5.98222878566795e-21
8.27724551017102e-21
6.14820482846222e-21
4.0709088199195e-21
7.08902990047587e-21
4.13178331738356e-21
7.9692271654093e-21
1.01400759705887e-21
7.12641394345361e-21
3.04578178891434e-21
1.99020403464007e-22
1.55566290217381e-21
2.5595770603911e-21
1.86314941840293e-22
4.07151501361031e-21
6.37193628755323e-21
3.80950591906309e-22
7.00642302644604e-21
9.94940402086234e-22
2.06771558487737e-21
3.1257538442731e-21
1.08711312716099e-21
8.06282313859164e-21
6.03199053582409e-21
3.19681410503491e-21
2.66278031042363e-21
1.35209107607522e-20
3.94904280504748e-22
1.45644386773792e-22
1.97205484012115e-21
8.74017152716118e-21
6.31159233952686e-21
6.39822255158948e-21
9.94581901914207e-21
3.13622337324384e-21
2.26671160866694e-21
9.94159478828348e-22
6.51377306861839e-21
2.1855920306767e-21
1.35482797199273e-21
6.59083188437225e-22
3.46947340980025e-21
2.67556930619786e-21
9.90661601899212e-22
7.93746075258252e-21
3.23413944499848e-21
4.97740228852349e-21
4.9132548954549e-21
1.85156212135459e-21
9.94801970999896e-21
1.9867259741018e-20
5.77109357558305e-22
1.06327053835916e-20
5.41048088799382e-22
2.05293252668271e-21
1.13930034098748e-21
6.34921959969265e-22
1.33306694724104e-22
3.87214848558028e-21
1.10677222977545e-20
5.19825032285292e-22
2.2107078393351e-20
2.85898566696242e-21
7.20421077816294e-21
6.61959357962047e-21
4.57561460220525e-21
3.53235549178223e-21
3.81713557648563e-21
1.42484812669931e-21
6.93170909842057e-21
2.92496108909825e-21
2.18388360404673e-22
2.43540423666044e-21
1.55488938252475e-20
1.69498175151121e-20
1.2949262404051e-21
1.24402382116002e-20
6.97416417311894e-21
1.10356928743664e-21
2.17291784808796e-21
4.25962775964438e-21
1.76120494651722e-21
1.2157396883729e-21
2.89689705701448e-21
1.24986488818982e-21
9.85046151222515e-22
7.86276145906513e-21
4.86942869453872e-21
5.26924645741692e-21
8.57085081425573e-21
5.7276017714925e-21
4.90120913896947e-21
4.18841934144778e-21
8.4241585011616e-22
5.90112778715485e-22
3.36858851436194e-22
7.75323029842326e-21
3.50485227085282e-21
3.72199637381334e-21
4.66808978919029e-21
8.50369653506093e-22
1.82672641418147e-20
4.36453574360089e-21
3.03701243648938e-21
1.37027001838807e-21
4.78540223745786e-21
1.81206043628399e-21
2.72015730494503e-21
5.5197070442729e-22
8.2654276801387e-21
1.24970593060689e-20
1.19533593985153e-21
1.59834316723822e-21
6.79219282951077e-22
4.64478294452228e-21
1.07248447529892e-20
4.05349242380226e-21
1.21247302501971e-21
1.42704988636809e-20
2.21208070120857e-21
5.28718621768206e-21
2.97530554487449e-21
1.14472543896132e-21
1.35720241109256e-21
4.73591286550326e-22
2.7757585044689e-21
3.90378508790158e-21
4.20368503375028e-21
2.44616225079203e-21
1.31660402802158e-21
2.52518648359693e-21
9.87810406550802e-22
2.69222813099843e-21
8.61827798312394e-21
4.51821684536635e-21
5.43370007248546e-21
2.76450126165879e-21
6.06511608059023e-22
1.50669940227197e-20
6.79888787471322e-21
5.68286540003821e-21
6.58224545218383e-21
1.85217269542949e-20
7.30588258385122e-21
6.65129321444073e-21
4.4365133995611e-21
8.87763472357634e-21
1.47281288954993e-21
6.06284578018857e-21
7.10110122291417e-21
2.8611057984384e-21
9.95840497314888e-21
1.39324829579964e-22
1.63796587579017e-21
6.98591085581955e-23
4.79145482085657e-21
6.64683690427694e-21
1.00366149701924e-20
1.89889474037401e-21
7.97583953857652e-22
8.86773038257969e-22
3.58104477082797e-21
4.58897753313177e-21
8.07794549214677e-21
1.27744436188359e-21
5.1713179101631e-22
2.8313201201653e-21
7.4921196345064e-21
1.98753957543438e-22
1.30147460409026e-21
5.3941157991082e-22
1.00418875718509e-20
2.53179341830351e-22
9.12432823095663e-22
1.19296188555482e-20
1.00478242417148e-20
1.33670925615872e-21
2.74226108679388e-21
3.92013282657266e-21
3.71291994303814e-22
3.60849333837898e-21
3.5849659720956e-21
1.51419616646482e-21
4.5852801524585e-22
4.49178844440755e-21
2.7032180939095e-21
4.72573604084408e-21
4.97286589354035e-21
2.19626450739899e-21
1.39244563870238e-21
2.77311751684126e-21
3.27852835769757e-21
4.74654794808424e-21
1.6296942873296e-21
5.8864223988502e-21
1.08512829038236e-20
1.04155791374198e-20
5.26543105183675e-21
6.04001764655157e-21
1.82277400597749e-21
2.75173201779897e-20
1.99126779091007e-21
9.04873962610849e-21
1.82142341561116e-21
7.16501682235749e-21
1.13433107865874e-20
6.36442276846099e-21
3.72832477829908e-21
4.47395208795852e-21
1.49259827954863e-20
8.58673768574662e-21
3.43333150042348e-21
3.24954042881125e-21
3.20308826039066e-23
2.83450736184516e-21
1.90856992501201e-21
4.82804186593942e-21
1.33417542241096e-20
2.16235228018056e-21
2.00245597864157e-21
7.19002083994707e-22
4.25381055320231e-21
1.2584558808017e-21
2.73958640761253e-21
5.03969611606499e-21
1.57005021883664e-21
9.22051799217955e-21
7.46951050276528e-21
1.74609822864143e-21
4.2645876652689e-21
6.06838546940766e-23
1.58973672400596e-21
8.20150472598902e-21
8.45689747325732e-22
3.89136898449426e-21
3.34350563582579e-22
8.49898701620928e-22
9.7087205581392e-21
1.64550698978602e-21
5.22881057452216e-21
2.01080071338469e-21
4.58455481638354e-21
8.52994189775251e-21
1.50013195088138e-20
1.74157027336423e-21
3.43566392270459e-22
7.3558784898765e-21
6.38641253199209e-21
1.09948002389074e-21
1.0071716703678e-20
2.02156022223978e-20
1.6321532977836e-20
1.03192543196574e-21
6.491045565414e-22
1.75923828794326e-21
2.05122521977241e-21
5.12734914833447e-21
4.72737098351798e-21
3.81104563863935e-22
8.89600783080364e-21
5.77794578075517e-21
1.01103308839757e-20
5.09930448197836e-21
1.25896093306349e-20
3.1285520785313e-21
2.08508015663146e-21
2.33702724388173e-21
7.60530795958128e-21
1.75394055030038e-21
8.1514212081388e-21
4.89986352687678e-21
3.17743627289309e-21
1.21707698740193e-21
2.74365873088988e-21
7.98553269588381e-21
3.64973363441438e-21
1.38488100220794e-21
6.41392896160002e-22
1.49908055431773e-21
3.24063726721342e-21
2.28807920529114e-20
2.79612975355077e-21
2.91737660888313e-21
2.59782792869073e-21
3.48969072709481e-21
4.23002863882016e-22
4.02453702105935e-21
1.25262020303164e-22
3.33047225788831e-21
3.55138779626346e-21
4.15974274522392e-22
3.19370189860455e-21
1.20342948533908e-20
5.05766999276073e-22
1.35118555939403e-22
7.74442412886451e-21
2.15071657135616e-21
2.42719913956192e-21
1.06934735885685e-20
6.93217843414485e-22
1.91752786782492e-21
2.79718642579575e-21
9.7093640438139e-21
1.31887884337362e-21
2.84232445379544e-21
6.12098905807922e-21
2.60375059515945e-21
1.95200845342673e-21
1.01467335937207e-20
1.31922415301828e-21
5.21684386105564e-21
2.10085615221829e-22
2.53704308498825e-21
1.17618448686165e-20
2.14500513223223e-21
9.08109172005431e-22
3.74607877071821e-21
7.79823281174571e-22
8.25710852585077e-22
9.40656433686082e-22
3.91398947634598e-21
1.42468197122762e-21
2.38447410657923e-21
6.42441023880735e-21
9.80968501438841e-22
7.24744042203485e-22
1.29916281133639e-21
1.01022254797746e-21
3.63434952644981e-21
9.66622201044398e-22
9.91675227811933e-22
1.02835912718704e-21
2.59652334441825e-21
7.6689756331441e-21
1.28125652325144e-21
1.99234238566771e-21
1.22835273626349e-21
1.53345925621851e-20
1.03120327959914e-20
3.86728476600009e-21
3.93159433586686e-22
2.57713545211163e-22
6.71285451634297e-21
2.47754470570109e-21
3.03570652603026e-21
6.77251865102698e-21
8.2604005779351e-21
7.36092297224757e-21
2.9809654955162e-21
7.188522112941e-22
9.60593776886419e-22
9.21618430427728e-22
1.41677193353189e-22
2.55288407012099e-21
3.24303353910152e-21
4.0312255047757e-22
3.00877026229834e-21
2.45715258264748e-21
1.0479488947278e-21
3.73715977036458e-21
1.6663054446775e-21
6.99034470059667e-21
5.99863510518274e-22
2.28928042538521e-21
5.8957446135575e-21
2.85583756815819e-21
3.5794887005751e-21
1.77200557960527e-21
4.05234431834972e-21
2.75103744929752e-21
3.02994961804016e-21
2.64287037280667e-21
1.53193197086243e-22
1.45817004635157e-21
1.62726743590162e-21
1.9694813880548e-22
2.21523554754665e-21
5.22906854095694e-21
6.78718441870981e-22
5.63111382110687e-21
2.03768665889922e-21
2.17508387668892e-21
1.67366631480199e-21
2.53499567985241e-21
4.87021171625566e-21
7.28199141892746e-21
4.21503013486069e-21
5.47558341334002e-21
5.79974025335163e-21
1.2729809311045e-21
1.07536390700536e-21
4.75861605741945e-21
1.44148973029201e-20
2.77931139462944e-21
8.43604040035327e-21
3.84481028679671e-21
1.16890336532431e-21
7.35742583532528e-21
6.65791781410475e-21
1.23797981029486e-21
5.82998816569527e-21
2.49207819235899e-21
4.27859123176042e-21
2.49734825885311e-21
5.97738534478557e-21
1.79895973138026e-21
2.03378122728261e-21
4.10727475033581e-21
7.51500288221271e-22
3.10414925439402e-21
8.61326997546749e-21
1.58626467383288e-21
3.97377803175309e-21
3.39576706201083e-21
1.82544234939586e-21
1.20549620875871e-20
5.31230066387986e-21
2.37476377826078e-21
4.09757160532106e-22
8.03862422070765e-21
7.14121075664313e-22
6.58681975649167e-21
2.62918813462684e-21
1.03441989090153e-21
2.92895786996906e-21
9.58314417382443e-22
1.15025599807283e-21
1.99310687761605e-21
2.34575518277965e-21
4.68042091026205e-21
6.05475439689594e-22
9.68292888232534e-23
5.22011863094888e-22
8.96439766182157e-21
1.49913310717512e-21
1.78802986324358e-21
3.62528942728611e-21
6.35735950416202e-21
6.4373231712555e-21
4.77973502778922e-21
1.80260661572028e-22
5.38481966723654e-21
2.14723306130004e-20
7.83825644131223e-21
1.06378987393925e-22
1.09689893372254e-21
1.51210405827472e-21
2.43016709877978e-21
3.14995033930395e-21
1.34813184346667e-21
2.01145267482448e-24
6.97487308418029e-21
4.20872754914676e-21
3.71646441789045e-22
4.41978379837429e-22
1.02153505458841e-20
1.06194303377884e-21
1.10674529500229e-20
1.65190729876685e-20
5.78118713158138e-21
7.08227018653266e-21
6.22831832444703e-21
4.53922476724042e-21
1.5069396458086e-21
5.25531697495691e-21
3.17774947137078e-21
9.08419513754603e-21
4.82117954241188e-21
1.86592962134329e-21
7.80467716714221e-21
3.55150572152846e-21
3.5280893644006e-21
5.07802250676982e-21
2.91290734963349e-21
3.6645168839468e-21
1.70005845883614e-20
1.27253617992861e-21
7.96628210707194e-22
5.96502489163995e-21
1.93197319304431e-21
1.16191821347324e-20
5.63181558159439e-21
1.02547910059172e-21
3.97325558840402e-21
9.86173540178382e-22
3.24676566449912e-21
1.56355290549263e-22
7.28321800467527e-21
2.14622412374321e-21
1.20002247715973e-20
3.74561058522773e-21
5.10256062815128e-21
1.31992290402386e-21
4.54999706243527e-22
4.33157904752701e-21
1.30318400807618e-21
3.22725796048699e-21
3.71970162407483e-22
1.23544771058359e-21
6.85986929253589e-21
2.10458988579506e-21
5.57117747103496e-21
3.99091176796099e-21
1.181532220401e-20
2.81813911901514e-21
3.77689440235174e-21
1.60078340023668e-21
1.46503299500245e-20
3.3219990622684e-21
8.25117101946666e-21
6.66771494755592e-23
6.10260753307111e-21
1.0423685892935e-21
3.19035589106951e-21
3.65559760326678e-21
7.34288395594245e-23
3.32225021169801e-21
1.57489025184238e-21
8.2235312949692e-21
4.27804035260928e-21
6.58399044925333e-21
1.67672168922198e-20
3.10406185521513e-21
1.22780538748634e-23
1.3633239656623e-21
3.73274821139238e-22
5.59949025987065e-22
2.76130110343495e-21
3.09165840144754e-21
4.65224415610711e-21
6.45598346483058e-21
5.77243993502538e-22
9.77815375435893e-22
5.79547259582595e-22
2.34726856329817e-21
2.05754960896868e-21
3.17225003698776e-21
2.19853109988029e-21
7.6020337825824e-21
2.52080154766437e-21
4.48171304262144e-21
1.74171686933234e-21
2.9992633972955e-21
1.38641402576874e-22
8.29666174489986e-21
1.92581401083767e-21
1.75855082388961e-20
8.09512624906574e-21
7.30263341988609e-21
1.26911666029875e-26
1.5783864533817e-20
2.12372194577525e-21
5.39565869226972e-21
1.11378123756935e-21
3.40220624664787e-22
8.87462262699872e-22
5.92599169233796e-22
2.06949903060492e-21
1.49488995203822e-22
4.67174833269583e-21
1.45888355764681e-21
4.97196870055178e-21
4.77605191685479e-21
2.91408854493527e-21
8.13531670906956e-21
9.72495721073264e-24
1.33769022983829e-21
5.99457022453227e-21
6.16710686743102e-23
1.71997526434002e-20
5.99249622152708e-21
5.40003357112821e-21
6.10208751375567e-21
8.09546327505499e-21
1.00866707271661e-22
4.62713880283726e-21
2.92756468966154e-21
3.23891468062388e-21
4.47303741344339e-21
1.586687515547e-20
1.25344159100325e-21
1.05463176554932e-21
4.72172524687759e-21
8.81201865466332e-22
3.37606235605981e-21
6.48024630378176e-21
8.2099756813161e-22
1.26317617859684e-22
4.67149747326134e-21
3.41719259001514e-21
1.44924089380561e-20
1.71991049323637e-21
6.69816567579025e-21
6.36899242474357e-22
4.14671111250091e-21
7.12047943700027e-21
1.33660824352245e-21
1.27975424975476e-20
5.71543881088139e-21
3.38932377420075e-21
4.77507624821045e-21
1.45482696927458e-21
3.41552907733476e-21
7.44843340259281e-21
1.6127072676378e-21
1.32674163304128e-22
2.52259288969151e-21
5.33592035984744e-21
1.1666371047806e-21
1.48090283453874e-21
2.24842919113262e-21
9.72910304093734e-22
2.02924333300947e-21
1.16253172003143e-21
6.47321609862594e-21
3.49773949744969e-21
3.61272505895432e-21
4.0609319101862e-21
1.52615884483856e-20
1.08432792517838e-21
8.08009831410185e-21
4.73562066749047e-21
2.70907213486316e-22
8.388815349252e-21
4.41668515696176e-21
2.05300519345139e-21
1.05009785579153e-20
4.83112361528901e-22
2.94849582890761e-21
7.02226673022245e-22
9.4594214473339e-22
2.40585474763232e-21
1.43266822748183e-21
1.13056674842612e-21
1.81609632363924e-20
3.07175395808694e-21
5.10162214345913e-21
1.68405363166409e-21
6.75474061818504e-21
3.86756721228029e-21
2.22350150918936e-21
3.31608823571218e-21
5.57171978696585e-22
2.71820788123853e-21
3.91377690194186e-23
4.67089632803216e-21
3.42576390711368e-22
6.21407810885715e-22
3.26135231242537e-21
2.37699406116264e-21
2.00319167243703e-21
1.43958742953554e-21
3.1142137203685e-21
2.21573665652092e-21
1.00174917297868e-20
5.97105970230672e-21
4.32623366654984e-21
1.63875006356363e-21
8.8176887632444e-22
8.01351708851946e-21
6.07259683831363e-22
5.75699026141215e-22
4.78944919776216e-22
7.28462243882647e-21
1.23751205027822e-20
2.67599116049553e-21
3.49397575827881e-21
6.1510670053163e-21
1.16032357971998e-20
1.10218913608707e-21
6.57457154782401e-21
1.27724765069156e-21
3.22975249257939e-21
1.10422640496408e-20
2.70916388700709e-21
5.88327094238415e-21
3.49345068483294e-21
1.15553133633173e-21
6.08261682038554e-21
1.49283547700146e-20
1.01249729755454e-20
2.44664442299158e-21
4.51982258827789e-21
5.27510956712244e-22
6.1108683866834e-21
5.33347585289505e-21
5.42800784808059e-21
1.02312054293776e-20
5.45867983066439e-21
1.45821471180048e-22
1.21358085077508e-20
2.15964407194735e-21
9.00336876469704e-21
3.1968428418067e-21
1.82146806880827e-21
1.89950716667656e-21
9.10972015074285e-21
1.46033831565848e-20
1.76259643057804e-21
2.26503466710578e-22
2.26100862313374e-21
8.07231056385689e-21
1.62972755008533e-21
2.71239206238675e-21
2.09072995912319e-22
1.72646106752233e-21
6.65574749452102e-21
2.09415998023731e-22
3.53865513691411e-21
2.75501619954268e-21
4.44279496009235e-21
2.31217351917821e-21
2.52203242393948e-22
3.12249388984568e-21
3.50555611206326e-21
6.63548453373048e-21
1.57795579040013e-22
1.27764616045452e-21
1.12977474354607e-21
3.73663762423417e-21
1.4079862052518e-21
1.34267770048108e-21
2.56253753555086e-21
4.96130501425654e-23
1.02729338611961e-22
1.89663209225164e-21
5.00690579680253e-21
5.32636187109604e-22
1.10024375207992e-21
1.01572385243495e-21
4.05110708818528e-21
3.35647555352905e-21
1.22787013694824e-21
7.19164062351984e-21
4.93563295629134e-21
1.17357276841178e-22
5.80685311101719e-21
6.02689960749914e-22
2.55638820809835e-21
1.39051826214436e-22
7.76745362637819e-22
5.31059778657716e-21
2.25287860663002e-21
8.34935919825126e-22
2.23981885771965e-21
1.57403080110483e-21
8.67404008335557e-22
9.8378031211437e-22
8.13609801144154e-21
6.8027035377672e-21
1.07465215608382e-21
2.78793938786487e-21
2.60207059005916e-20
1.13797996129696e-20
3.31830296392812e-21
1.35798229190561e-21
2.9440508601691e-21
4.89145901019311e-22
5.22346076364686e-21
7.12569850849356e-21
3.16193719615024e-21
1.23682887953944e-21
9.94280200906838e-22
7.04872521848165e-22
4.93680559640179e-21
2.30819505708049e-21
1.17904457968766e-20
9.0346508340245e-22
2.80630953418185e-21
2.15427323329893e-21
6.46107847865615e-21
7.60825731316181e-24
3.45391764361888e-21
3.66852463634976e-21
1.77554403364694e-21
5.20911886912427e-21
4.5870159319644e-21
2.4299949459282e-22
1.28099686290822e-20
3.12198757264856e-21
6.99360506445776e-21
3.24875902998538e-21
8.41015678762386e-21
7.42900789155003e-21
1.04891579218731e-20
2.04678147299263e-21
8.71133577897545e-21
1.98439838045835e-21
1.15435882208795e-20
6.01388333694147e-21
5.3051295487241e-21
1.94847338606204e-21
1.35348876610346e-20
9.27155689290667e-21
1.79160797166112e-21
1.33515309329246e-20
1.09027773212266e-20
3.96810930637175e-21
6.48478038810553e-21
1.29934405983226e-20
4.29682306719279e-21
4.2765380072191e-22
3.79868628553841e-21
7.56744828567909e-21
8.15659104790295e-22
1.33755312620986e-20
1.54360799316922e-20
6.01699518814866e-22
1.10358114032623e-21
2.78507299962905e-21
1.78230305134052e-21
8.77143649163876e-22
1.17843680206978e-21
4.37413754787244e-21
2.55806557839288e-21
7.60504371249896e-21
6.10119332974542e-22
1.46719929076328e-21
5.76564409430681e-21
2.38859953287373e-20
6.15979341945269e-21
1.90678029731709e-22
1.61790194150233e-21
1.3126876852688e-20
2.35330318253431e-20
4.31925459186792e-21
6.3043969773021e-21
3.95735712766528e-21
9.44502066406877e-22
1.63952010386715e-20
3.29745147743578e-21
5.24631841897115e-22
2.23039009311445e-22
5.9735882208749e-21
2.51953659564754e-21
1.38123289984324e-21
5.01595265350503e-22
5.48030103921189e-21
1.17732293175627e-22
1.54013148354983e-21
1.30657104274536e-20
4.03261353316568e-21
1.47977727146759e-21
1.72829105436109e-21
8.67005144374298e-22
1.66220398283487e-21
5.56274531060043e-21
1.51961664914578e-21
1.51004703519348e-21
4.8037948633454e-21
1.44668468660082e-20
1.32827033450007e-20
4.17669793911792e-22
1.1890031072961e-22
5.61001993174189e-21
6.51291289254026e-22
4.67012770223554e-21
8.25906323729596e-21
4.8679393227817e-22
5.54762888121919e-22
2.06574828759761e-21
1.06184596483361e-21
1.11424910322185e-20
2.90771887302629e-21
2.43225617813278e-21
7.1731176418429e-22
1.00074787993359e-20
1.0878776706923e-21
3.03054643523225e-23
2.4790050273204e-21
2.83336286554054e-21
1.07110783705703e-21
1.0099493922303e-21
8.03007611143165e-21
3.55593111579567e-21
7.94096287488119e-21
7.62044984989519e-21
5.86344669913328e-21
3.47594383889738e-21
1.37798942764267e-21
4.36078891705029e-22
4.19307186262672e-21
1.78760855922081e-21
1.75991640203406e-21
7.14719832879465e-21
1.30076388957369e-21
4.32049139602383e-21
4.3216410290533e-21
1.74361860519787e-20
4.05071308657772e-21
2.70455876011138e-21
3.24138441752291e-21
4.25314777516402e-22
7.30460539064064e-21
4.41869022967965e-21
7.24719974974238e-21
3.5745782619699e-21
3.18443136281852e-22
4.9520064040519e-21
1.77296346974313e-21
2.13782066030715e-21
2.1192451601925e-21
1.58945142453736e-21
5.18620199687616e-21
2.00883207980079e-21
3.23242107762771e-21
2.29257008342691e-20
7.76255215213598e-22
5.98148584015347e-21
3.39424354593363e-21
4.60101109875906e-21
6.1315207654624e-22
2.3556722360183e-21
5.16928895656614e-21
3.03730259747191e-21
2.03909329167384e-21
1.06070679783554e-20
1.21877656718829e-21
8.06805030898054e-23
4.12602750481548e-22
7.97943729223224e-21
1.37927259876836e-21
2.09772253456326e-20
3.15095766732465e-21
2.4104732190592e-21
3.36051596422075e-21
8.52156334595487e-21
4.04765108649194e-21
1.2685393369466e-21
5.41269008609148e-21
4.95789218390484e-21
1.50164802529789e-20
9.28158723653997e-22
3.4750772592259e-22
1.91855456080712e-21
5.99737072580662e-21
3.26699807102043e-22
4.39252087837511e-22
6.45164483776497e-21
3.22654490341472e-21
3.64322573197255e-21
3.49873757139822e-22
4.32825664643544e-21
7.10492418700702e-21
3.35603798258368e-21
4.67136189132511e-21
1.30785009360974e-22
1.52056411842298e-22
6.12113229308426e-21
7.86390042791184e-22
2.74683367686582e-21
5.41442375508418e-21
2.00201224070604e-21
9.59126799497684e-22
2.48936502251185e-20
5.87395817822098e-21
1.05647622575222e-21
3.23212791073342e-21
2.06042104381507e-20
1.39152979353733e-20
1.39284846065459e-21
8.9581915558873e-22
9.42004995914419e-21
4.41121223404923e-22
4.18142940433045e-21
1.7353413064517e-21
5.90048587893213e-22
1.65020080486098e-21
8.46859644784084e-21
6.36829414477921e-22
1.14835402728693e-21
2.45440282181177e-21
5.21961686573251e-21
1.04459060208007e-20
5.18758755638996e-21
4.38205656411949e-21
2.60473858499444e-21
3.7981898039678e-22
8.85098003461702e-22
5.26218412632672e-21
6.17320013509897e-21
4.09318816066733e-22
1.5302932624934e-21
5.31658040913573e-21
2.58098076309597e-21
2.83896089946069e-21
9.11429038929575e-22
1.19138648528354e-20
7.38278715772841e-22
1.63483705981717e-21
3.00310473617077e-21
3.28423429792874e-21
4.81880055711241e-21
9.13328630237401e-21
3.40362896106102e-21
6.98966887004024e-21
5.91444888624355e-21
1.49430944951194e-21
5.95480203319164e-21
3.75851684949433e-21
1.44337608335594e-21
5.92125612879031e-22
3.61259594703768e-21
9.7766508791704e-22
7.47147888871766e-22
3.15428944576285e-21
1.95201899318233e-21
1.54744206557272e-21
6.53784073175482e-21
1.17535165420523e-21
9.8632195127194e-22
5.62750116888115e-22
9.92633996571748e-22
4.7202211569498e-21
6.27639277694749e-21
1.63326022721758e-20
3.40190443850021e-22
1.62118378616118e-21
5.77447013104201e-21
2.60204325240144e-21
1.19159455279178e-21
2.30929243775853e-21
1.52627724708337e-21
6.12346454499598e-21
6.65598678637619e-23
3.81778750572561e-21
1.21191736241239e-20
1.81815377412157e-21
1.35306855341597e-20
2.89327121979545e-21
3.34452133378917e-21
3.01775200779496e-22
4.93820387496987e-21
7.13204684361376e-21
3.82580845265398e-21
2.12028975927354e-21
9.95640856530684e-22
1.39355019643331e-21
3.4637588226804e-21
3.95758473632982e-22
9.4514074261181e-21
2.04175914807257e-21
5.50402526873968e-22
1.82762199200093e-21
1.23186263967596e-20
2.67675918999903e-22
2.06505622883517e-21
2.49055728184495e-21
4.57042957567023e-21
4.59422871525975e-21
1.68914105347569e-21
9.30522325093657e-22
3.2511748564718e-21
3.92857801000234e-21
1.90014325090709e-22
1.35684619684614e-21
2.45710069005324e-21
1.0497037799629e-21
1.27233307775745e-21
2.52178982912476e-20
1.99095319725371e-21
3.66528397336876e-21
2.28332720039298e-22
1.11732331967034e-20
2.50941774433761e-21
2.92113509801282e-21
5.47673111620714e-22
9.86488271999547e-21
2.92439060145511e-21
2.77613364119949e-21
6.57554780855893e-22
9.43909397642446e-22
8.570952895071e-22
4.15025838687267e-21
4.29411824806265e-21
2.32268283578634e-20
8.12007477058505e-21
5.72304821066772e-22
1.3985887396679e-20
3.2477569652759e-21
2.74774894998056e-21
6.26062831278915e-21
1.69450089135184e-21
1.30267249438487e-20
9.60277829233698e-22
3.80851708328068e-21
5.39398765370766e-21
2.57563436970801e-21
8.9626267516757e-22
5.10537694195589e-21
1.67944523232525e-22
3.61601636527014e-21
3.52988066912213e-22
1.04458117950938e-20
6.35537710262769e-21
6.71350407852565e-22
1.25153492926962e-21
1.68396717912646e-21
1.59303424872502e-23
2.05453254806339e-21
2.530511048235e-21
1.84907345594138e-20
5.96066996685675e-21
1.59917133006549e-20
1.56170733195964e-22
1.05116898035268e-20
4.84774740260388e-21
1.34079433485834e-21
1.63089817015705e-20
1.07397037346652e-21
1.89874309080664e-21
3.10924074313957e-22
1.95243854111363e-21
2.27598228414422e-21
5.99636823931929e-22
1.18483469552625e-21
2.69307601127029e-21
1.19348034714174e-21
6.64538577376984e-21
5.35132173676347e-21
2.47810765254594e-21
1.74503990837582e-21
1.13540353034427e-21
4.47488760609899e-21
1.77947925550004e-21
2.54397697699683e-21
3.98889838788478e-21
3.23911941180545e-22
7.57923514074177e-21
3.86580288145753e-21
1.07560379733898e-20
4.86720220958648e-21
2.02091270159143e-21
1.83410743029148e-21
8.0349933512653e-21
5.59017182297217e-21
7.49260319030367e-21
8.2104927902658e-21
5.65436480063916e-21
1.30877543725495e-21
4.00842271364053e-22
3.42457995865095e-21
6.59104303881271e-21
3.07211369819673e-21
3.4952012962105e-21
1.80408301748282e-22
2.14119448528296e-21
1.29521112829793e-20
4.43728650011774e-22
2.82276709234676e-22
3.32103130640004e-21
4.20062020563823e-21
6.8176337085997e-21
1.3217219272719e-21
6.53916042658374e-21
4.40477681528475e-21
7.06227296434715e-21
2.36409638644347e-21
8.14939634892361e-21
4.0382969753708e-21
3.5367722232467e-22
2.52834287565027e-21
1.85202173606245e-21
3.22669164621067e-21
1.07666100555639e-21
4.38128612587349e-22
1.09977204946411e-21
2.25568700449817e-21
1.07723133043784e-20
1.96995798930702e-21
4.21004009145153e-21
8.27227988572657e-21
1.11480279530362e-21
2.72912605304522e-21
1.41178147812982e-21
1.48388182822289e-21
1.397740780801e-21
2.59609007515081e-22
8.09907171593921e-21
6.64735262785687e-21
7.20076431006203e-22
1.83963186993747e-21
1.35223792676972e-21
2.58080342347371e-21
3.28357471675104e-21
4.1114038953398e-21
2.58796743645527e-21
5.94233334603067e-21
1.63136026900435e-21
1.88044999147638e-21
2.04930134736102e-21
5.39716143743753e-21
3.07285787681971e-21
1.06233984660716e-20
1.14094419082387e-20
9.33547612054601e-22
2.72114646327807e-21
3.38714026210492e-21
3.09733609015946e-21
2.38652258740113e-21
9.76996607518752e-21
3.11124553602622e-21
9.41170886101919e-21
2.19999992318257e-21
4.66263801632234e-21
7.9417266904128e-21
1.36623434176772e-21
6.66918227657896e-21
4.95943225796265e-21
3.00207285708248e-21
8.23700392593863e-22
2.9514723398754e-21
2.97122713687428e-21
2.45268369982272e-20
1.27453430699083e-20
4.31577534849126e-22
7.06125621893169e-21
1.24304290124733e-21
9.17185158309626e-21
4.12798395415131e-21
2.96350070944976e-22
1.78128049321367e-21
5.66184755258073e-21
4.1019675470987e-21
5.77085581382825e-22
8.78385080268065e-21
1.31986206169336e-21
3.00216526153029e-21
2.29713905027182e-21
4.69049023941386e-21
9.56920529800008e-22
1.19120781150248e-22
9.59630840209226e-22
4.63225942239822e-21
1.08460899527773e-21
1.30172757413106e-20
5.4663741774028e-21
1.3113003279359e-21
5.70979268231558e-22
4.41603553930555e-21
1.31282498889859e-20
1.12891695835606e-20
5.99964506561155e-21
7.33358951240168e-21
6.94482701190562e-21
3.73363890872545e-21
8.27416588674171e-22
1.57759775169444e-21
1.03257832707358e-20
8.38575354633711e-21
4.60088579376847e-21
5.10964761462069e-22
1.00730490366005e-21
4.99167209099058e-22
4.70092228441958e-22
1.47375374342873e-21
1.09786530413029e-22
2.39363028989617e-21
1.09748782022717e-21
8.46553845054069e-23
3.1138448404376e-21
2.91948822078643e-21
2.15160755330802e-21
2.19019603193991e-21
1.64988436258435e-21
4.76647606793581e-21
1.2505825575052e-20
4.97048087624785e-21
2.57275383169542e-21
2.09124380172604e-21
3.77325939075852e-22
6.7975590505482e-22
7.93506194892565e-21
2.64138844785927e-20
2.86651247750103e-21
2.93067038652089e-23
2.19738841301314e-21
4.63876765486988e-21
1.27016365804758e-21
4.31274311327797e-21
8.20211752130638e-21
1.0221743676667e-20
5.56007348999675e-21
7.82250570478493e-21
3.80625490648186e-21
3.31695887574322e-21
1.88930926817821e-20
1.17057445076843e-21
3.77962194952921e-21
3.61383148095854e-21
1.51046962188922e-21
9.6298831337793e-22