/*--------------------------------*- C++ -*----------------------------------*\
  =========                 |
  \\      /  F ield         | OpenFOAM: The Open Source CFD Toolbox
   \\    /   O peration     | Website:  https://openfoam.org
    \\  /    A nd           | Version:  7
     \\/     M anipulation  |
\*---------------------------------------------------------------------------*/
FoamFile
{
    version     2.0;
    format      ascii;
    class       scalarField;
    location    "0/lagrangian/dsmc";
    object      Ei;
}
// * * * * * * * * * * * * * * * * * * * * * * * * * * * * * * * * * * * * * //


41019
(
1.24367067875726e-21
6.27452021518111e-22
1.14937264622334e-20
1.17658339190112e-20
4.24732524810143e-20
1.99917608535511e-20
1.82282399116549e-20
1.76871152563378e-21
5.17845427015814e-21
1.68210144055379e-21
2.27264916716657e-21
9.14323443709969e-21
2.17310511117856e-20
1.13266876234111e-20
2.29689836520153e-20
3.02617837574065e-20
5.31822312365514e-21
3.1345856343344e-20
1.79139615719336e-20
8.68769017695633e-22
3.59712526269257e-20
7.59914135651086e-21
2.16572511803234e-20
6.85970664299004e-21
1.4313419459505e-20
3.00518230364459e-20
5.76158871539168e-21
2.36064762293442e-23
2.66832816182368e-20
9.71930622378456e-21
7.34005172265148e-21
3.62256357575063e-21
8.81265753818552e-23
5.80170354678205e-21
2.3820345958371e-20
3.12831452322621e-20
7.44842714249217e-21
1.88798120281415e-21
1.83375808568311e-20
2.30297778358578e-21
8.90214084100483e-21
3.19495480359576e-21
8.84257690280851e-21
3.227034947674e-20
4.2659621773225e-21
2.30865778942661e-20
6.04359240590801e-21
1.72099168907685e-21
3.02347307852084e-20
1.04969997754746e-20
2.02551874706748e-20
4.62005343254894e-21
1.51187783647022e-20
2.68693172623975e-20
1.07448367198503e-20
2.42734335562748e-21
1.77169958884838e-20
1.74980115388805e-20
8.17093575376274e-21
3.5851157740174e-21
2.01214324933185e-21
1.83519626901514e-20
1.7822671585279e-21
1.7841013227855e-20
2.66582425738905e-21
5.7311241136139e-21
9.17877535291235e-21
4.74598884856591e-21
1.16583105257189e-20
4.23421982512245e-21
2.90707129107253e-20
1.50311610096337e-20
1.12784276719973e-21
2.05665477648583e-21
3.32038390510453e-21
1.98663784950715e-20
1.37716755284434e-21
5.83763151140874e-21
3.21093249509639e-20
5.10461107757299e-21
1.0251152840353e-20
5.94505371535081e-22
1.58025805216187e-20
1.98768726027956e-21
1.75706986965667e-21
3.42363794064833e-21
1.14076072515074e-20
8.31387275671007e-22
2.35112695395029e-21
1.38525404115276e-20
7.63560150487151e-21
2.42578927905996e-20
1.34188433061478e-20
1.44593016854943e-20
2.12366816921261e-20
1.41911755422548e-20
4.94836076009137e-20
2.35334309274905e-21
4.54124685323566e-23
4.39341167855179e-22
6.8773160165993e-21
9.96662276452074e-21
1.6057032215562e-20
8.41216803802555e-21
1.58274991713712e-21
4.86690239318957e-22
1.26526018569908e-22
2.28285454418261e-21
4.96189590329579e-20
4.23546534806804e-21
6.01349166528608e-21
1.46420310807253e-20
2.48317365305131e-20
4.51384472023611e-21
1.22127264597585e-20
2.03551191230058e-20
1.23953499521507e-20
1.44001544474755e-20
5.50176454242799e-22
1.23062618797925e-20
6.26381284267354e-21
1.82073246896952e-21
6.16538399573542e-21
6.60895316551455e-21
1.13738953726306e-20
1.22145450408309e-20
1.85355529915386e-20
1.14285177571893e-21
3.12832166151724e-20
1.93072461923851e-21
1.81241953410018e-20
1.3303564810822e-21
1.61299301194073e-20
1.32190210097211e-20
8.7830717400818e-21
2.3094573175533e-21
5.48583593879335e-21
6.6045431655306e-21
2.86500354531244e-20
1.08315859403293e-20
1.74024633274974e-21
9.4051505954713e-21
4.90299347546121e-20
2.58657506571524e-22
1.36023540731516e-21
1.47906852062031e-20
5.26987248659779e-21
6.34212517967809e-22
1.09319872636913e-20
2.94461016139795e-21
4.0644839159782e-21
2.09908478810277e-21
7.02473912509432e-21
2.55621706193418e-21
2.51580957321921e-22
2.81660633277696e-20
5.05984255529385e-21
3.67729203189692e-22
1.20393462107166e-20
5.95816542050454e-23
2.20889881485353e-20
1.10399216768243e-20
1.84767515751646e-21
4.1200684078988e-21
1.29478300780381e-20
2.86892309598418e-21
3.37429915003082e-20
6.09722365831075e-21
1.10094277915457e-21
1.60622630190866e-21
2.69586205221151e-20
1.33363932927297e-20
6.51063447244509e-20
2.16126323344888e-20
1.98587807388614e-20
1.37268438066158e-20
1.05970664753467e-20
1.14514067294569e-20
4.27454438009794e-21
2.07951272952617e-20
8.77488326729476e-21
6.5516508121402e-22
7.3062127099813e-21
4.66466814757426e-20
5.08494525453363e-20
3.88477872121531e-21
3.73207146348005e-20
2.09224925193568e-20
3.31070786230993e-21
6.51875354426387e-21
3.24053773324654e-21
1.41866022083814e-20
2.00764448174922e-21
9.79970891262416e-21
3.74959466456945e-21
2.95513845366755e-21
2.35882843771954e-20
1.46082860836162e-20
1.58077393722508e-20
2.57125524427672e-20
4.72203993049491e-22
4.17235691157596e-21
4.66839388742547e-21
1.87533134933236e-20
6.07764109376326e-21
4.2561599877476e-20
1.22659758294389e-20
4.41988385922315e-21
1.54131002611975e-21
1.116598912144e-20
1.15494369035044e-20
3.94175728572229e-20
4.98666123707787e-20
6.03770230094279e-20
1.83976174598186e-20
3.56006029398485e-20
8.20217101940731e-22
8.56666534131402e-21
8.19941917637231e-22
2.82131655257653e-21
1.37382909314328e-20
2.65558303265082e-21
1.48495077416413e-20
2.16753998328384e-20
4.45731386420141e-20
1.80127270432209e-20
9.23232174137791e-21
4.90097235188568e-21
1.45127621264815e-21
6.23567335209048e-21
1.04311065893771e-20
4.05506787574574e-21
2.44037665063927e-21
2.26998469802205e-21
2.34774467747706e-20
1.70923724210827e-20
1.49656557364147e-20
7.98210091826852e-21
1.69265250855974e-20
1.18766403284174e-20
8.83119466965866e-22
1.01274203686918e-20
7.99067398830704e-21
2.96343121965241e-21
8.07668439299528e-21
2.58548339493718e-20
1.3554650536099e-20
1.63011002174564e-20
8.29350378497637e-21
1.81953482417707e-21
4.52009820681591e-20
2.03966636241397e-20
1.52351771232366e-20
8.27963176983412e-21
1.41827327124633e-20
1.43732160267753e-21
2.13268781056601e-21
1.33095401986833e-20
2.6632904170729e-20
4.4184386686498e-21
1.81885373405657e-20
2.13033036687425e-20
8.58331739531519e-21
3.17653440055969e-20
2.46605848543807e-22
3.7332633268254e-20
2.09577325674586e-22
1.43743644625697e-20
1.99405107128308e-20
3.01098449105772e-20
5.69668422112203e-21
2.39275186157295e-21
2.66031911477391e-21
1.07431343124839e-20
1.12940573557359e-21
3.53862843188688e-22
4.37985607851376e-22
1.59538207314353e-20
8.99058105019525e-21
1.15776976519506e-20
2.60623832988967e-20
8.94561371285644e-21
2.71876315986883e-20
1.61823473973246e-21
2.3094891670957e-20
1.03882507809286e-20
3.92881300379659e-20
5.22371338732496e-22
6.53904931759432e-22
2.5439933845207e-20
6.81879955352356e-21
1.11956336631383e-20
1.17683594154092e-20
6.16502267933071e-21
2.83981040939435e-21
1.76383520038392e-20
2.91240251739594e-20
4.04718279274078e-20
1.23777646885342e-21
1.86642590700557e-20
3.21330975424622e-20
1.76180672324504e-20
2.19123247804027e-20
9.5841605501521e-21
2.93830615808419e-20
1.62771315673778e-20
3.18045122170475e-20
6.74024017939456e-21
2.50481846217835e-21
1.53033049465927e-22
7.53480990974231e-21
1.76802622255999e-21
2.48710869301089e-21
7.78186667036667e-21
2.41340628637294e-21
2.18117144171543e-20
4.67446808483736e-21
3.8889513013336e-21
2.37870990467795e-20
1.9093268305383e-20
1.19180392373009e-20
8.04898124374831e-21
4.4777948386459e-20
2.04179741127384e-20
7.81826254843372e-22
3.56750737552384e-21
3.29904788747765e-21
1.34260625573356e-20
5.09260930824958e-21
1.66611433532492e-20
5.99116960003899e-21
1.67295085769788e-20
2.5603091566719e-21
7.94945797272709e-21
5.32455408954625e-21
3.58714658448558e-20
6.4452345714451e-21
8.13760921958981e-21
1.5119088348195e-20
5.85453183213204e-20
2.76615539765387e-20
2.24085315082958e-20
5.23829468592429e-21
1.27937629958067e-20
1.8205156408223e-22
4.76921017201787e-21
2.46045141779671e-20
2.5370692419772e-21
1.16741069534828e-20
1.93768359608973e-20
9.77160679633846e-21
5.14253321723846e-22
2.17849573354093e-20
1.84844471039217e-20
2.15230075271083e-21
1.92702430112963e-24
1.09173718555725e-20
2.55898256932575e-20
7.17636101294526e-21
1.03069917681138e-21
3.86029778279552e-22
1.50236946616453e-20
1.67466689375992e-20
3.38068825661588e-20
2.15626052866222e-20
1.15299172961831e-20
9.85056596716911e-21
3.76279536721574e-20
1.3496428047696e-20
9.97870512377542e-21
1.86113843066553e-21
5.06060551250966e-22
1.94916648367305e-20
2.33821043845134e-20
1.79040065048345e-21
5.30097700239228e-20
1.41830788860164e-20
3.70286098879935e-21
3.12908583926736e-20
2.54718540189016e-20
1.68441417918402e-20
2.28159238787439e-20
5.26182165090115e-21
3.82849534966743e-20
6.95368856489608e-21
6.63114886861114e-22
9.49880159577432e-21
1.2401268461191e-20
5.14929208575664e-21
1.63703190839421e-20
5.39981720892385e-21
2.93711411743299e-21
9.08891075218663e-22
2.10962515946799e-20
2.83383847195604e-20
6.86423761587343e-20
2.16998430648019e-20
8.7521298266494e-21
5.15984355349889e-21
4.41127328238414e-21
3.53854534217927e-21
2.38949339764459e-20
7.94073226362058e-22
9.99141677366493e-21
5.16459526013538e-20
6.71045256043216e-21
9.58110569581364e-21
6.07456238260663e-20
3.5307359134776e-21
3.5394913331222e-20
1.64910231523853e-21
7.17547349152009e-21
6.45214971406849e-21
7.28159741868576e-21
3.20804207657054e-20
2.07965353024346e-21
5.75258360347476e-21
8.39155927738725e-21
2.91280921314417e-20
3.95663653012087e-21
8.52697336138633e-21
1.83629671742377e-20
7.81125178547834e-21
5.8560253602802e-21
2.00155165840798e-20
4.95008517989585e-20
1.13798478460038e-20
1.48518043396583e-21
3.52855346058495e-20
8.20185627979794e-22
2.81821149839067e-20
1.98193230866805e-20
1.12382363121546e-20
2.33946984352371e-21
2.3315727406416e-21
1.36983464465052e-21
1.08574021999724e-20
1.09351989753254e-20
4.95101861896942e-21
1.15532177584384e-22
5.17740493502624e-23
6.52263136053022e-21
1.19705941940865e-20
3.89748843400917e-21
3.47588630207213e-20
3.10848000422602e-21
2.93706374459159e-21
6.82426874627115e-21
4.05193182550634e-21
1.38445318750087e-21
1.93881277913904e-20
6.03979033077609e-21
7.45557415228656e-22
1.17395436630526e-20
3.09360983879743e-20
9.07281500344128e-21
7.59917575372686e-21
2.98683432625714e-21
7.45878122068883e-23
8.38805702558615e-21
3.57543652208977e-21
2.51609027266661e-20
2.24703690082404e-20
4.15578108381408e-21
1.56035649586452e-20
1.97851858068055e-20
2.1565566338823e-21
4.08688899322019e-20
3.62502468519345e-20
6.88787646460734e-22
4.40691867165648e-21
2.35275766392611e-20
9.68326208179397e-21
4.95595041622932e-21
4.98320408717014e-21
2.58521311369388e-20
1.47489240721913e-20
7.81078082026137e-20
2.08097725050672e-20
5.76467148767594e-21
1.01453405273056e-21
2.51055565199412e-21
1.76872338406725e-20
8.56751270447456e-21
1.07384661017253e-20
7.36616372460789e-21
1.21570329550491e-20
8.25311234789257e-21
9.08984885412048e-21
7.92861111842e-21
4.5957959125873e-22
4.37451013905471e-21
4.88180230770485e-21
5.90844416416441e-22
6.64570664263996e-21
1.56872056228708e-20
2.26047238078102e-21
2.36476494421114e-20
6.52525163006677e-21
6.61207826992113e-21
1.28938941116486e-21
1.4610635148767e-20
3.9753008836968e-21
1.26450904045821e-20
1.35833233761206e-20
1.73992207600549e-20
3.10828008538024e-21
3.07934480243327e-21
3.29898357231756e-20
2.38655001971389e-20
1.80533347726297e-20
1.59815678749296e-20
1.01804782373644e-20
9.40545810577442e-21
2.35134392121309e-20
3.71393943088458e-21
1.26521890444999e-20
3.22579767151016e-20
3.63060841221862e-20
1.72511861585229e-20
1.91991347650179e-21
6.19302857516887e-21
3.26235835752479e-20
1.08715535497819e-20
1.0033358778293e-20
2.91961591407076e-20
2.53838755389946e-20
2.26241322224456e-20
2.85914828652106e-20
2.94209305644553e-20
1.9882488028166e-20
1.93954097739632e-20
1.83555981136535e-21
7.49804618579736e-21
8.47095876065449e-21
2.92453460248845e-20
6.2195476358951e-20
1.41829546636076e-21
1.37032735752579e-20
1.52244165498937e-21
6.58301217452448e-21
1.49062298951104e-20
1.70753068689402e-20
4.74061356181835e-21
1.71895764371683e-20
1.03606841904545e-20
6.4717266775616e-21
1.27942556565096e-21
4.49739932152536e-21
5.36408958973075e-21
1.08758682818583e-20
1.60446258516279e-20
6.23559119717972e-21
2.05045805736366e-20
4.54153958324904e-22
1.67805940304692e-20
2.52033221085342e-21
2.1122743681111e-21
1.39775752010282e-20
5.42042769542368e-21
7.29050129633934e-21
1.98013693202913e-20
2.43793329263254e-20
6.03435802447343e-24
4.3616512974867e-21
6.24907139906154e-21
8.79581409456363e-21
6.03927721618585e-21
2.21051121525233e-21
8.33407509857414e-22
8.90497528986636e-22
1.73435613947441e-20
2.1246810559598e-20
1.86849549733411e-20
1.36176743017213e-20
4.52081893742581e-21
1.57659509248707e-20
5.05516012745695e-21
2.71254923102328e-20
1.44635386272356e-20
5.59778886402987e-21
2.34140315014266e-20
1.06545171645854e-20
1.05842680932018e-20
1.52340675203094e-20
8.73872204890046e-21
1.09935506518404e-20
5.10017537650842e-20
3.81760853978583e-21
2.38988463212158e-21
1.33188870799868e-20
5.79591957913292e-21
3.48575464041973e-20
1.68954467447832e-20
3.07643730177517e-21
1.19197667652121e-20
2.95852062053515e-21
9.74029699349735e-21
4.69065871647788e-22
2.18496540140258e-20
6.43867237122963e-21
1.00518717817921e-20
1.91333307098008e-21
4.89920631994371e-21
1.36499911873058e-21
2.16727654215534e-21
3.90955202422855e-21
3.4644286981217e-20
1.11591048722245e-21
9.25733089613597e-21
2.05796078776077e-20
1.48403483421846e-20
9.76877199608316e-21
1.65510736702575e-21
1.69652984542128e-20
9.67732372608066e-21
2.23022377237402e-20
3.95458606638087e-21
2.52768441039902e-21
6.42589173712775e-20
1.39409041173462e-20
2.647299265887e-21
1.83078225992133e-20
7.5216203908195e-21
8.49212880276554e-21
6.86248150857102e-21
6.71581655540462e-21
2.37561997726752e-20
3.38838109765563e-21
1.13928281362555e-20
2.75864315279973e-20
4.98489597048849e-21
5.03016506766594e-20
6.778995774193e-21
1.9853062779304e-20
1.85905073199149e-20
1.32697823128482e-20
3.01920413124378e-20
2.86452975316568e-21
4.09524503156315e-21
1.60129048037932e-20
2.14398232320301e-21
2.27110715787701e-20
5.56885423651819e-21
6.69009980947161e-21
7.04180568989452e-21
1.16890666316853e-23
1.42673833870868e-20
1.94945655075436e-21
2.06432426502101e-21
7.95719985168118e-21
2.05904089066687e-21
3.96466891302362e-21
7.91916171754194e-22
1.82085398901424e-21
1.55904086780289e-21
2.39284671818975e-21
1.36252074405993e-21
5.50990384320719e-21
4.57060432084346e-21
1.74274663951667e-21
7.17200341140334e-21
5.51716806364218e-21
6.47215719680573e-22
2.24503576048977e-20
1.02066187399436e-21
3.53133489498444e-21
6.20849709181477e-21
4.48466985611465e-22
1.40152449980875e-20
4.37665067294044e-21
1.49159061016553e-20
1.43281557505644e-20
8.7422656348058e-21
5.0405059228729e-22
9.39671001584609e-22
4.58432895724205e-21
1.79837106735968e-20
1.8501320602293e-22
5.15992579302005e-20
1.79774886645812e-20
1.62001007133846e-20
1.8306262541267e-20
2.4286389825165e-20
3.02600121814983e-22
1.38814164085118e-20
8.78269406898463e-21
2.99557256859218e-20
1.34191122403302e-20
4.76006254664099e-20
3.76032477300974e-21
3.16389529664795e-21
1.41651757406328e-20
2.643605596399e-21
1.01281870681794e-20
1.94407389113453e-20
2.46299270439483e-21
3.78952853579053e-22
1.14500547763957e-20
2.23371592363152e-20
7.68055678556396e-22
1.54378519773429e-20
2.00944970273707e-20
1.91069772742307e-21
1.24401333375027e-20
2.13614383110008e-20
4.00982473056735e-21
3.83926274926429e-20
2.12089097632881e-20
3.52405560421693e-21
3.0813752953947e-20
1.88940610774215e-21
1.67370376704049e-21
3.19996747860452e-21
1.14525188724472e-20
2.93680058799734e-20
1.59728065500431e-20
2.27455235139235e-20
7.74887918298944e-22
1.33931443106823e-20
2.3856654034442e-22
1.8494657052564e-20
6.12865449627548e-21
1.30813592560664e-21
3.81573374129276e-21
4.04111486594043e-21
3.49223465370607e-20
1.42139331602509e-20
4.57847653451568e-20
3.25298377553515e-21
5.28455184608305e-22
1.36892844352058e-20
2.80822176482086e-20
8.7225406797904e-22
3.8175496591127e-22
3.1896393534688e-21
2.74430822148936e-20
2.29193547374919e-20
5.45160436952046e-21
3.96547487323656e-20
1.56179929883222e-20
2.83782643420017e-21
2.56716809702102e-21
4.29800468244548e-21
1.98283955619302e-20
2.04184637720739e-20
3.3767798083427e-22
2.93355265318192e-21
7.34273213817518e-21
2.02642218545551e-20
1.25646579342549e-20
6.67050452756808e-21
1.09350777151515e-21
3.10916672048293e-20
8.15462364371558e-21
1.39461727121778e-21
1.40126889840965e-20
2.78106988431442e-20
6.10409164660078e-21
6.5400980923535e-21
5.42429994230085e-21
1.4503919650106e-20
1.90803705992078e-20
7.72289726702991e-22
2.68416969969795e-20
9.7974951137563e-22
1.39050306376069e-21
2.41769344446375e-20
3.13422452230678e-21
4.9162501906909e-21
2.64530662897332e-21
1.20491089569332e-20
1.73890111083028e-20
1.38568718355602e-20
2.50051969202473e-20
1.26293324041321e-21
1.76974555655704e-20
3.21725705920853e-22
1.10826905681501e-20
1.44865306580144e-21
3.48097073915994e-20
3.3065674082612e-21
1.06306179416721e-20
1.83352105468576e-20
7.07987777470257e-21
4.67694983836652e-21
8.07842653404267e-22
4.98478002768393e-21
1.04803520544988e-20
3.4665940089952e-21
1.82478504611566e-20
4.47850643100438e-20
3.03749189266362e-20
2.10010803497296e-20
3.45299615857548e-22
6.73923055245353e-21
6.09141737632509e-21
9.19428480131254e-21
6.25767031600652e-21
2.5334038473834e-21
6.17935303746487e-22
2.04437233766541e-20
6.53512891053896e-21
8.6747818188516e-21
6.49490049198246e-21
5.8617396741689e-23
2.13155424238272e-20
5.96753161014792e-20
2.62529310410498e-21
2.06882568566731e-22
1.73540633621407e-20
9.54163257470255e-21
1.42728956843009e-20
1.71535891351988e-21
7.36678756131368e-21
3.16187364843879e-20
6.9105457826076e-21
1.58878060105723e-21
5.75632221504944e-21
1.81015060175638e-20
6.09531970990986e-21
3.10077268384418e-21
3.59354878197781e-21
3.56114900373037e-20
9.36748166953703e-21
1.66027259129078e-20
1.99064536011914e-20
2.48734388335031e-20
3.83293848136357e-21
1.15419247538157e-20
7.11307513555124e-21
3.93456460506045e-22
7.27096871283896e-21
1.00916689327572e-20
1.19020586107127e-21
7.32312137003104e-21
1.56224519101716e-22
6.92624561163101e-21
1.759315428826e-20
1.10261823689162e-20
3.04717155730484e-21
4.12265484973256e-20
4.34076826289045e-20
1.00694266605872e-20
1.17458467413914e-21
2.15749218705595e-20
1.4806898868874e-20
3.52071830523535e-22
1.74205593330516e-20
1.80806988224974e-21
7.66916462429504e-21
4.17155478643308e-22
2.33023608791346e-21
1.59317933597315e-20
6.75863581989005e-21
1.36954717690359e-21
5.82196226012323e-21
2.28450294212699e-20
1.58483442070888e-20
2.48562173297161e-21
6.75892942216309e-22
2.04081106133016e-20
3.22395646825147e-21
8.36381816359461e-21
7.80621177017747e-20
3.41393988389087e-20
2.71328133290026e-21
6.13293809223495e-22
5.94106220014429e-21
3.41268640799995e-21
1.14674261551546e-21
2.80697617034948e-20
4.0840101008175e-21
1.32944031884795e-21
2.98284060272051e-21
2.1146175655445e-21
1.48104167892054e-20
1.34184596539347e-21
2.29816560609091e-20
1.5503229457288e-20
5.36012650863629e-21
6.9443209367733e-21
7.73139560305666e-21
3.41821952595014e-20
1.66861262383663e-20
1.9410951224293e-21
5.32663210094081e-21
1.56273566073728e-20
8.72197690485898e-21
1.66377225716235e-20
5.64127737245393e-22
1.67202972731592e-20
1.09103048946285e-20
2.19277568770217e-20
5.94614484835972e-21
8.13801338492546e-21
1.05392439639197e-20
6.03215381852219e-21
1.28363281401859e-20
5.95319514137506e-21
3.68611000643865e-20
1.3767586593743e-20
1.31388296946429e-22
1.66909272977957e-22
4.23496207632124e-21
7.97170336737135e-21
9.708748733437e-21
8.1129314605979e-21
1.17430042054414e-20
7.84302916510397e-21
2.23704932506538e-20
1.11692488608093e-20
1.72313425042114e-20
1.50960457333039e-20
1.94172792884797e-21
1.12691859473265e-20
5.65695235345094e-22
1.62697860328558e-21
1.61883032312766e-20
1.79239345797371e-20
4.98673117562588e-21
1.91365849363201e-21
3.94909732600478e-21
1.31224126436173e-20
7.67419673517863e-21
2.28151311374969e-20
5.2471905626073e-21
9.61945685639884e-22
2.97261914812258e-20
6.82880995482414e-21
1.23139191155155e-20
1.84793802583581e-20
4.36938440403677e-20
2.05654735997714e-20
3.93806305580641e-20
1.66415115473168e-21
1.29577637756038e-20
5.75008486376964e-22
1.18720713829958e-20
3.09534857534715e-22
1.90966093202687e-20
3.33976211434895e-21
4.42351456698879e-21
1.32673094615231e-20
1.18488867116539e-20
4.315576741899e-22
2.03094076973235e-20
5.4669557971967e-22
4.06674882006739e-20
1.41283759939182e-20
8.72161188465208e-21
4.39362466265244e-22
6.91881589523272e-22
7.60127703357139e-21
1.92308814515159e-20
4.86622010428631e-21
1.75979425918423e-21
1.66882359318013e-20
9.92312808674818e-21
4.53014110558043e-21
1.33611723864836e-20
4.34005405980247e-20
2.52111049944029e-20
8.09948464218418e-21
9.71095732994344e-23
2.67128921221802e-21
7.26658118757021e-21
5.02165513819154e-21
4.47524803854251e-20
4.85422298159394e-21
1.66428866436576e-21
9.81952072666609e-22
1.17166339038318e-20
1.69852025246696e-20
1.5202471847083e-21
1.81219152708432e-21
3.0461878721724e-21
9.81443142588106e-21
1.51627903988192e-20
7.90328181380401e-21
8.76068760104832e-21
1.85055405252584e-20
2.57220334868948e-20
1.08744900289359e-20
2.79640340067445e-21
2.16605094591897e-20
6.92559926292898e-21
1.31095147895581e-20
5.87963873852622e-21
9.95708714019685e-21
2.54709092720181e-21
3.82032755955381e-21
3.72876471069025e-20
3.81295913749597e-20
2.1441594986384e-20
3.90229166872106e-21
1.29614741880715e-20
2.1295317162208e-20
1.60712822160349e-20
5.71822422451827e-21
2.27784887435922e-20
5.60249317074093e-20
6.83008525596006e-21
1.75835370855067e-20
7.8067228814675e-21
2.17415992492271e-20
1.07237347859097e-20
9.55329408845557e-22
1.48560192121557e-20
5.3188904092294e-21
6.41346198092146e-21
1.06684544417928e-20
8.59839564630493e-21
1.90239887985662e-20
6.02649623940238e-21
9.69726323288312e-21
6.87771025028072e-20
2.32876564564079e-21
1.79444575204604e-20
1.01827306378009e-20
1.38030332962772e-20
1.83945622963872e-21
7.0670167080549e-21
1.55078668696984e-20
9.11190779241574e-21
6.11727987502152e-21
3.18212039350662e-20
3.65632970156488e-21
2.42041509269416e-22
1.23780825144465e-21
2.39383118766967e-20
4.13781779630508e-21
6.29316760368979e-20
9.45287300197395e-21
7.2314196571776e-21
3.01842757052675e-20
1.50339848684922e-21
3.0564806185633e-21
5.68824452627228e-22
3.0226047127504e-20
1.22569019385582e-20
6.50964531952326e-21
1.04252317776777e-21
2.29715136052184e-21
8.19611172078344e-21
1.30222580962906e-20
2.43876415418032e-21
8.89495840994064e-21
5.35454232093579e-21
2.28058761504336e-21
1.92893279799586e-20
1.92400949143281e-20
1.71136635697386e-21
9.60014008049353e-21
2.11510250407553e-22
1.0068113947751e-20
1.09556767680121e-20
1.19614308935659e-20
1.46177479671378e-21
1.77877606387574e-20
1.89880072247081e-20
1.920179325965e-20
8.41233368568775e-21
1.19036383374108e-20
3.27471994783124e-21
3.4421397265524e-21
2.62613564583361e-20
4.1119368612972e-20
1.81156429725038e-20
3.37414484231208e-20
5.1215059814902e-21
1.48158034095736e-21
4.32600080693081e-20
1.76972131679822e-21
1.99258687510542e-21
1.10379185380747e-20
1.1799325430816e-20
1.18762705302546e-20
4.19292228230478e-21
2.54057893435225e-20
6.06240197551663e-21
3.44506208186079e-21
5.38530012880726e-21
9.8998679493815e-21
1.6181995859939e-20
1.49388591960597e-20
8.38901015819203e-21
8.06924432539619e-21
1.13945694119034e-21
7.46539361862954e-21
1.57865523789801e-20
3.98120342751614e-21
1.2279564482002e-21
2.02861653074403e-20
1.59497412274072e-20
1.24239247823849e-20
8.51688269838207e-21
4.66926410712128e-22
1.27211787466421e-20
2.21483614731852e-21
4.47571672234273e-22
9.0093142085123e-21
4.13388282830644e-21
1.44564016713372e-20
4.37610017639858e-21
1.02108868831831e-20
1.62956846575187e-20
2.38668668771209e-20
9.37908382596216e-21
1.78644060995749e-20
1.0168376239423e-21
1.44437593450761e-20
3.04628947713718e-21
1.52777793941791e-20
7.68548300516606e-21
1.00977560848601e-20
9.46286833728856e-21
1.3320488316023e-20
4.64232619671816e-21
4.51609676162958e-20
2.2433930109564e-20
4.21384340658933e-20
7.88762197519843e-22
9.44297519507539e-22
2.40602267199037e-20
6.90195955614909e-22
7.50979178381388e-21
1.97563090417069e-21
3.40516035237473e-20
1.20908001612277e-20
1.20069660478875e-20
2.37433953792705e-20
2.92304636034589e-21
1.32130489323461e-20
4.17156625898408e-20
6.06412286665368e-22
1.67322702728343e-20
2.61342559704904e-21
1.62746418790212e-20
6.33015454833938e-21
8.67981365938634e-21
4.59036800807428e-21
2.55669343544545e-20
5.42323386280427e-21
5.75227988184048e-21
3.88226442283398e-20
1.67122874703681e-20
9.69356451185735e-21
9.62141065112123e-21
1.48017029015581e-21
6.02874304101242e-21
1.88111162308526e-20
2.56930691290659e-21
6.12527744421772e-21
1.63592519700581e-20
3.92553083776404e-21
3.69924889545132e-21
1.99926016200002e-20
5.72940361442507e-21
6.3583781377021e-21
5.40034844282952e-21
2.90364754218812e-21
7.5329996206909e-21
2.02589483425912e-20
6.28442337554217e-22
5.70042975272128e-22
3.69884794383657e-21
1.67385787854367e-20
1.65411660740253e-20
2.55473093992967e-20
1.05134854752129e-20
1.47153627551675e-20
1.5030575952114e-20
3.79389904353412e-21
4.55939462863121e-21
8.76340529403846e-21
1.64301933486214e-21
2.95946481599864e-20
8.77317180436532e-21
8.32840092359847e-21
8.21718697333851e-21
1.33080259669483e-20
8.39625207111564e-21
7.81156414413378e-21
1.23762666604104e-21
1.94486812799278e-20
2.43602243117551e-20
1.71691446320031e-21
4.1957662190037e-20
9.74327089582769e-21
8.24324684994167e-21
1.87818849383675e-20
5.08350267405551e-21
3.90801748315461e-20
1.30651699765527e-20
5.41263731009161e-21
3.18868135397693e-21
7.72690310912404e-21
2.68878802550271e-21
1.53161308258677e-20
5.03833569697576e-22
1.08480490958104e-20
1.05896420073664e-21
3.13374353852815e-20
1.90661313078831e-20
2.0140512235577e-21
3.75460478780885e-21
5.05190153737938e-21
4.77910274617506e-23
6.16359764419018e-21
7.591533144705e-21
5.54722036782413e-20
1.78820099005702e-20
4.79751399019646e-20
4.68512199587893e-22
3.15350694105805e-20
1.45432422078116e-20
4.02238300457501e-21
3.00857752406348e-21
2.36725597950564e-21
3.82893608979615e-21
1.22369255920286e-20
6.82794685243266e-21
9.51430170944806e-21
3.55450408657875e-21
7.85893269203199e-20
1.7528002483702e-20
1.82441896284837e-21
5.38938517045237e-21
3.30733247917311e-20
1.35177998538566e-20
1.72535149354424e-20
3.1774112470089e-21
1.86937849789272e-20
3.67754032714185e-22
2.7165897071753e-21
4.2758464223769e-21
1.19666951636543e-20
4.98607259707203e-21
4.9301054507246e-22
6.94250888610156e-21
4.38204060802003e-22
2.50268944340677e-20
4.69903797768167e-21
3.67968488249781e-20
3.8848138255394e-21
1.26361496471105e-21
5.0621041098722e-21
2.46314783707974e-20
8.77292217270726e-21
3.92632631176485e-21
1.60985827384532e-20
1.66040993704201e-20
1.35663386659719e-20
1.52757523769416e-20
9.21037325377325e-21
1.54681465810224e-20
1.65626980349103e-20
2.41160402388322e-21
9.65216289604779e-21
8.46830127704027e-22
2.89155212307448e-20
1.26018606169147e-20
4.00296122005136e-21
3.96516578181569e-21
1.05764410028067e-20
9.59325064264699e-21
4.22674840559187e-21
1.01391452619951e-20
1.04867528744393e-20
1.31158146051345e-20
1.25027665804046e-20
3.57037350109799e-20
5.55606520818736e-21
2.40009124012317e-20
3.22998301666917e-21
2.31741770358939e-20
3.29931614839232e-21
3.3917799013638e-21
7.52531778707335e-21
5.90987396792106e-21
2.58678872188004e-21
2.48168396571797e-20
1.11579310016278e-20
8.18737815913565e-21
1.77601249386581e-20
4.45164548466868e-21
1.76395046887949e-21
7.78827022545242e-22
6.8769170715106e-21
1.47224071171164e-20
1.93860644968206e-20
1.93526795214963e-21
5.9013316467645e-21
1.11600153326246e-20
4.18464224231957e-21
5.2350381680463e-21
9.85072415025311e-21
7.32041494670602e-21
7.76390230936582e-21
1.03524055160197e-20
3.51721420171927e-20
6.76395646660032e-21
8.75436838200476e-21
1.23106030046631e-20
6.12963904965194e-21
1.83659257357414e-22
5.61811917208927e-21
1.38341807598617e-20
3.72530120510935e-20
1.01614207863148e-20
1.07646667076872e-20
3.18200147925516e-21
1.65465764161518e-20
2.44720255838432e-21
6.98370979213283e-21
9.0052628728646e-21
3.97870925362033e-20
9.50703791792532e-21
1.69139757076841e-20
2.69282542155081e-21
3.88851902044635e-21
1.06341487185857e-20
3.72062205410964e-21
5.32898657536516e-22
1.3940093239114e-20
3.30940057785881e-21
3.94422177924115e-21
1.1639799991666e-20
7.56659354123986e-21
1.40197013264072e-20
1.82410952666142e-20
2.15615351142417e-20
5.34384147964101e-21
1.69855426577422e-20
1.23059026412961e-20
1.73125674414848e-21
1.34050756089395e-22
9.41226212212499e-21
1.47914645099693e-20
2.80703343812597e-21
5.97425796767668e-21
5.09626274503757e-21
2.25175239393647e-20
8.55838413005224e-21
1.22082890664774e-20
3.90518272239319e-20
1.32010404068303e-20
3.93390098380769e-21
1.87794432646153e-21
1.29528562163427e-20
2.16586905758053e-20
1.2502162315823e-20
1.2484224622768e-20
2.2000768537205e-20
7.85458884823249e-22
1.12009167261764e-20
3.4042961894282e-20
1.36985210899546e-20
1.20246868227837e-20
2.51572606390113e-20
3.51893158852889e-20
1.30798677222638e-20
1.53289428438621e-21
3.02191471098014e-21
1.49750162729717e-21
1.41027668532587e-21
4.4212612302862e-21
3.29359591239087e-22
7.18089086968852e-21
3.29246346068151e-21
2.53966153516221e-22
9.34153452131279e-21
8.75846466235929e-21
6.45482265992406e-21
5.20278538941935e-21
4.86461540040426e-21
8.63538037647432e-21
8.76391382068666e-21
7.77949543778787e-22
9.07425411183872e-21
7.71826149508625e-21
3.69045459683993e-21
4.87536722764451e-20
2.03926771516446e-21
1.29201330553806e-20
2.64290224892298e-20
8.97852040103209e-21
1.96422040945433e-20
1.00047285952896e-20
8.84992880404821e-21
3.36668043316695e-20
4.88370077421609e-21
4.9964795330448e-21
2.87828466332818e-21
2.34675171143548e-20
1.14187647194456e-20
5.69905855619317e-21
2.22342130900677e-21
4.74594205231919e-21
5.35733613146143e-21
8.25569403292361e-22
1.85748487775045e-21
7.80518800691984e-21
2.86681061869102e-21
3.81285986542415e-20