/*--------------------------------*- C++ -*----------------------------------*\
  =========                 |
  \\      /  F ield         | OpenFOAM: The Open Source CFD Toolbox
   \\    /   O peration     | Website:  https://openfoam.org
    \\  /    A nd           | Version:  7
     \\/     M anipulation  |
\*---------------------------------------------------------------------------*/
FoamFile
{
    version     2.0;
    format      ascii;
    class       scalarField;
    location    "0/lagrangian/dsmc";
    object      Ei;
}
// * * * * * * * * * * * * * * * * * * * * * * * * * * * * * * * * * * * * * //


3337
(
4.41415624489913e-21
1.676600644627e-20
1.67085633449413e-21
1.02286943173618e-20
5.64560995823796e-21
1.0692246077342e-21
9.45786579646177e-21
5.73691215971791e-21
1.4535835625464e-21
3.50807652030594e-21
9.37261241693559e-21
6.51508417577814e-21
2.15619177412339e-21
2.15638686333689e-21
4.66324697978831e-21
6.70763570834491e-21
1.53530331195682e-21
2.23361763645341e-21
2.16672077124419e-20
2.49870638540959e-21
7.29483594117696e-21
1.09921905056491e-21
2.38054901988318e-21
9.6889462232357e-21
5.57907762577881e-22
7.13273161403781e-22
2.9640360367304e-21
2.73870326816696e-21
1.32124432564438e-21
7.15032360190566e-21
1.58384336777124e-21
9.36423363050412e-21
5.59976393511686e-22
5.15459227792364e-21
3.19033444356655e-21
1.09511933480302e-20
7.40769577691834e-22
5.6872385835533e-21
1.87407602421056e-21
2.53068406402039e-21
1.49477248971017e-20
7.04953841788791e-21
1.20608452791125e-20
8.25653164944632e-22
4.71529084211215e-21
3.7686153444719e-21
2.1735972711977e-21
1.9999965788537e-21
6.36982547029245e-22
1.02838192445807e-21
1.02829642881549e-20
1.68640727723635e-21
1.58098879936573e-21
1.59652650071521e-21
1.71898037224328e-21
1.47445221700896e-21
1.47240954118187e-20
3.10096106055916e-21
1.85323039185479e-22
2.55461693806824e-21
4.64424747095876e-22
4.47830278624977e-21
7.87065013715637e-21
1.21671678630855e-21
9.62212479761524e-21
1.01900366326e-20
3.08684025457678e-21
9.4736110151606e-23
6.59521394835891e-22
4.90205787113671e-22
5.71482296962335e-21
1.31179891545841e-21
5.55840781696599e-21
5.32928650480949e-21
5.82671436043187e-21
6.30434226117931e-21
5.34553136163518e-21
3.29380311874647e-22
3.11645589563547e-22
7.43841167451103e-23
7.21452374475767e-21
3.52269759948811e-21
4.3200009195136e-21
1.01620835787242e-21
1.95708283904056e-21
8.40924132273013e-21
2.94914887807048e-21
6.49713094958774e-21
1.16346521507979e-21
7.54189798451127e-21
1.63533287164957e-21
1.04120578947094e-21
1.68620293483012e-21
5.38985226965178e-22
5.86443706091251e-21
8.01108281408735e-23
4.73983549892331e-21
1.63217319572132e-21
1.51278474140816e-21
2.37226688307346e-21
1.26730993871777e-21
7.82494487861385e-21
2.27145214004817e-22
4.02368384373438e-22
4.42711073002718e-21
2.74749508868658e-21
8.24336394124826e-21
5.02716635201575e-22
1.83154346392146e-21
3.59781967253853e-21
4.82997161497986e-22
2.01645924072909e-20
5.86461054377996e-21
7.45409512610395e-22
7.32503312996203e-22
4.71644324760763e-22
1.81345583988747e-20
1.69846414206249e-21
1.32344366013067e-22
9.10454453205823e-21
6.79372162684459e-22
6.48006788866737e-21
7.670446495313e-22
1.34426770461119e-21
4.39384291019719e-21
1.12960858391731e-21
1.16131612707786e-21
1.55205824750205e-21
3.00463771629306e-21
4.89593791006379e-21
3.8522123124212e-21
4.94021916569332e-21
1.61030822007455e-21
3.39165107857807e-21
3.12993524674778e-22
7.20393977588097e-21
8.14733780893266e-23
3.57706593233806e-21
6.74057700324742e-21
2.06770641552183e-21
5.69806919606065e-21
2.49690816161839e-22
2.54035818108412e-22
1.94254171047396e-21
8.22481275576983e-22
1.47646273280106e-21
1.38050934487854e-20
5.20223001708217e-21
3.63880660077682e-21
3.76631599721728e-21
6.27654543210711e-21
2.64251590179271e-21
1.86932059567909e-22
3.46352567273837e-21
1.26104914427469e-21
4.40038922535857e-22
5.52431071138445e-21
3.67840664998337e-21
1.08882680853323e-21
2.08605090655731e-21
2.48516595440061e-21
2.04439155423415e-21
4.19811624259496e-21
2.26767029831247e-21
1.81947201865844e-23
6.31720933174937e-21
5.28025332933017e-21
4.18314366341956e-22
9.91343671285449e-22
4.12220121358019e-21
1.23194145232389e-20
4.88948483177723e-22
7.61969379808619e-21
5.61434412102339e-21
9.83829175576013e-21
2.91980422044088e-21
9.3255542549375e-21
2.6517692009752e-21
1.52326827627529e-20
4.52983977672911e-23
3.94977770218952e-21
9.2086920458868e-21
1.58949105596774e-21
1.73457656422071e-20
1.20926946663915e-21
5.01196067512738e-22
1.17529314199397e-21
3.0761133936116e-21
1.21682323284032e-20
9.33596938693681e-21
7.87919977735119e-21
5.8695923297783e-21
3.34570896748641e-21
7.43116903130738e-22
3.77405689266349e-21
2.28156207766209e-21
6.69450074626518e-21
1.09284500447272e-20
5.65538865198113e-22
9.01825273165646e-21
1.07244388726282e-20
1.00825056810308e-20
2.33366458122337e-21
1.69363654356733e-21
6.39090563513393e-21
4.64082579566458e-21
4.28919986282176e-21
7.36728745654844e-21
4.37042790624392e-22
4.15698749570028e-21
6.32380956892153e-21
2.42145490258412e-22
3.64419364243077e-22
2.6336919636163e-21
5.16025229460534e-21
1.24659733845787e-20
4.94997697171966e-21
7.92973262428516e-22
8.85329260340539e-22
3.31493581339418e-21
1.99620372872448e-21
1.75829159805367e-21
3.62941687459269e-21
4.80682149414229e-21
4.58754482211558e-21
2.16919564760478e-21
3.71017405921218e-21
7.85775447693528e-22
6.00135057417365e-21
5.38959287463274e-21
1.52892830458298e-21
5.7249618804775e-21
7.90667405612451e-21
4.22139500173148e-21
1.47042706764584e-20
2.22264658546049e-21
1.24813784588818e-22
2.07778003673768e-20
3.06604697750348e-22
9.35816914761138e-21
5.22374941962093e-21
1.46896914366568e-20
4.18008370287008e-21
2.10068195911353e-21
4.39245250723901e-21
3.54104575862721e-22
5.54518910799621e-22
9.39404764194893e-21
3.56078881639296e-21
5.24831397022587e-22
5.89892823870652e-21
1.05958214521275e-21
7.06649724167148e-21
1.16274702745396e-20
2.86071054628574e-22
2.95232550441285e-21
7.02611396835883e-21
1.28676679947152e-21
6.53388416334517e-21
1.60722656143213e-21
8.16516363367014e-21
8.14113997547521e-23
6.99878096289476e-22
4.95175369094733e-21
1.59956696709077e-20
3.84451910501941e-21
1.66770430458719e-21
1.41374118038513e-21
4.08692533173317e-21
4.57247269932826e-21
2.77980136579039e-21
6.44105669934714e-22
2.20805149085645e-21
9.0214879658565e-21
6.96940436090592e-21
2.67946844304032e-22
8.12638835853519e-22
1.22576151919078e-21
1.02104758898752e-21
2.37862356931949e-21
1.99303866863068e-21
6.13839670346649e-21
5.60286439684237e-21
2.87036622887049e-21
1.79465982862326e-21
3.362730481815e-21
9.95536306896864e-22
4.21451220146984e-21
9.11470153006904e-22
1.95488262737493e-22
9.38651647861753e-22
3.37686797699927e-21
9.2141834350555e-22
1.44830453714201e-20
1.14294437117125e-21
3.50553216200739e-21
2.28696021917552e-21
4.0569156780253e-21
9.59176233484008e-21
2.60833971312299e-22
3.65305398248514e-22
5.4265677756423e-22
1.67630405792716e-21
2.78384421188818e-21
6.32141719845707e-21
6.12782378100423e-21
5.53682979636125e-21
1.91245307867313e-20
2.13329779222604e-22
2.37202074336649e-21
2.99907841361305e-21
8.79523388986473e-21
4.56800398825228e-21
4.61339564913187e-21
1.54225627426102e-21
1.21094072654981e-20
6.95234543693616e-22
6.50766810538098e-21
8.90073997348535e-22
7.20428560835779e-21
5.30634254017164e-21
3.51359470422816e-21
7.27682278030455e-22
6.04197685904051e-21
4.85860646505861e-21
1.86410441302994e-21
2.15527238651373e-20
9.47712646543923e-22
3.10162832015743e-22
8.87695222224597e-21
9.5195813042938e-22
1.18279447540552e-21
1.80960342419939e-20
1.90198643909148e-21
9.96566935796077e-22
7.06285928680877e-21
4.41902805239525e-21
1.15027306733484e-21
6.77578461099706e-22
2.00957764334736e-21
3.64734163606595e-21
5.94631335467741e-22
7.18550475894169e-21
1.01041038080734e-20
1.53360017605223e-20
4.92161129333069e-21
7.86183752332509e-21
7.00709595608646e-21
3.15295167160196e-21
1.48319891689583e-21
3.51778856753821e-21
1.11482664597839e-22
1.37379422431046e-20
1.06911643399222e-21
2.44291891924898e-21
4.24414744000983e-21
1.4360979056971e-21
1.06876419479603e-21
5.40151610291449e-21
3.20888808372491e-21
4.79094905825362e-21
2.74124480646158e-21
4.27208304567888e-23
4.96930586404206e-21
7.99381038344705e-22
5.45164253012746e-21
9.140780409164e-21
1.3569983618638e-20
4.9882143274914e-21
1.40497652609282e-21
6.1328361028377e-21
1.42046822234424e-20
3.39606745099841e-21
3.45316530209764e-22
6.96687266684973e-21
1.85061767755781e-21
1.53487517300688e-20
4.94681719747156e-21
5.78706273222104e-21
5.50162570215027e-21
3.42529698679489e-21
2.9526165138224e-21
2.03445442103023e-20
1.73373472743652e-21
4.93163543580835e-22
2.59130689154672e-21
2.70653757360312e-21
3.90576521947407e-23
6.61381227046101e-21
6.18109451646004e-21
5.41930152964653e-23
1.222966656271e-21
9.52827324578468e-22
1.85977550062226e-21
1.28225372204353e-20
3.06388550040906e-21
4.78467475948116e-21
1.43406698146494e-20
3.97942448785472e-21
2.02496527105767e-21
2.26168254672377e-21
5.30410809171997e-22
1.43469118232121e-21
4.59631970998953e-21
3.02556235424466e-21
7.68127555486487e-21
1.95969541290524e-21
6.90739950726854e-21
1.82080987133278e-21
7.82868798512317e-22
1.50255191461945e-21
8.19915645743264e-22
9.68520249304016e-22
2.6301632613952e-21
1.23204232942591e-20
1.83644518641251e-21
3.01437665623976e-21
1.82634457939991e-20
4.34010470564395e-21
5.75781061488556e-21
1.02315490155057e-21
4.78104153646971e-21
1.84907168819483e-21
7.03402262032873e-21
3.11586062206203e-21
6.15134499789643e-22
2.94750669603397e-21
7.06345502919904e-21
1.90358427067379e-21
7.83445773897801e-21
1.28819121342311e-22
1.78937650754985e-21
3.28324818650428e-22
1.01936964943288e-21
6.70487381867898e-21
1.70876503229778e-21
3.0098802393918e-21
8.35525727932938e-21
8.24109637067752e-21
1.65164398527264e-20
1.09018675909878e-20
1.35552652053273e-21
3.18917516007904e-22
7.55895663795434e-21
5.34785713534078e-22
4.89757849183301e-21
2.0014385236959e-21
2.73112838262883e-21
7.24241310526732e-22
1.20593254324475e-21
6.700809005946e-22
9.27782079116439e-21
2.3319933411912e-21
5.35450970343333e-22
9.79914620399366e-22
8.57531091949849e-21
1.90410256558794e-21
6.34548397697462e-21
1.07432771773541e-20
7.62832627088045e-22
1.0017135962678e-20
5.9164609379485e-22
2.3788049797209e-22
1.59806056782555e-21
7.62307886875249e-22
5.91777054142524e-22
4.86050917194482e-21
1.36574902506146e-21
5.31051902259315e-21
3.14529470098884e-22
5.38040583618224e-22
2.60448852054686e-21
2.44606355449189e-21
2.4237633815975e-21
1.58503075974241e-22
4.14809489336161e-21
7.38882987276064e-23
2.93247627368414e-21
2.91532926036595e-21
2.4180911840943e-21
1.59168558345594e-22
1.08160715642439e-20
1.31582964284527e-22
4.82542359743451e-22
7.50765028220878e-21
4.23981475463986e-21
8.37134499509799e-21
2.72440452278628e-22
5.16371297038338e-22
7.09853161739659e-21
4.54023924339806e-22
2.2354079582784e-21
1.05046986285596e-21
4.99847938818735e-21
1.04584873828477e-22
3.0438673777353e-22
8.30797466576413e-21
8.32855013317819e-22
3.38678796976402e-22
5.17698201245861e-22
4.31937762092078e-22
8.19445742251371e-22
3.87108503941116e-21
3.03029637226441e-21
3.93482618555534e-21
1.30415081852844e-21
2.1352947020815e-21
5.54803002593063e-21
9.70725054105473e-22
7.26283641415267e-21
1.57382154631592e-20
1.08558321656585e-21
2.16195222075002e-21
1.40579221444292e-22
2.71499482540427e-21
9.96441706917935e-23
9.73011011731416e-22
1.66464521533701e-21
4.77823083072447e-21
3.29249136529927e-21
2.98028227581496e-22
4.10514865591671e-23
2.51722865615892e-21
3.13846848956012e-21
1.07366579292375e-21
2.14989247244176e-21
1.98358677160996e-21
9.40765239013792e-21
4.42492855062341e-21
5.67793373104817e-21
1.9381117443395e-21
3.47774163607412e-21
2.02404560366344e-21
2.00664048826346e-21
3.49590967064149e-22
3.78132043696387e-21
4.4202556972466e-22
1.93561745619018e-21
1.63772234879302e-21
2.95521323740893e-21
1.84817782199116e-21
2.28162507285105e-21
2.14031888302082e-21
1.94579572617076e-22
1.88782887539837e-21
5.86981814240552e-21
3.63184795197667e-21
7.3304189613248e-22
1.92462118645611e-21
7.70374620120406e-21
1.18712918880685e-21
3.16045656946693e-21
1.30823507589706e-21
8.0915586675063e-22
4.60981309167985e-23
9.71356344838211e-22
6.23262447256111e-21
3.00720059875012e-21
1.61414060117081e-22
3.11868044881336e-21
6.350536763535e-22
6.68213685747888e-21
1.58063087192787e-21
5.39545692427866e-21
4.93791682745147e-21
1.12568572818773e-20
4.63480225686495e-22
4.2417310819241e-22
3.37818701227802e-21
4.10632097663626e-22
6.32075466779485e-21
6.12000301079023e-21
4.69702987055489e-21
1.0573578743056e-20
1.75217627820821e-21
1.0288873130169e-22
2.83231957584473e-21
1.31657847024741e-22
1.26489053284719e-21
3.1225992354497e-21
3.03086731067347e-21
2.14466713126986e-21
4.80162577589022e-21
1.66012647086259e-21
9.03921515073704e-23
7.069237643382e-24
3.20921909162729e-21
1.64975265734316e-21
8.06183622639678e-22
3.05001698695562e-21
2.69303767304712e-22
6.79141613160254e-21
3.17179767945106e-21
4.39362949799749e-22
2.82307249645818e-21
1.84381036986415e-21
1.07257634740576e-20
4.26406632517721e-21
4.92927880396216e-21
1.15400786789775e-21
5.98380052051645e-21
1.59290569931432e-21
1.01303518906088e-20
3.68698198904633e-21
6.92853945738526e-21
3.45931493661682e-21
3.97355954453432e-22
1.55358642455104e-21
7.57872376079585e-22
1.04617447002773e-21
2.6446865605172e-21
3.15964897992864e-21
2.49007963590065e-21
3.22430871726887e-21
2.31817163374048e-21
2.376835159049e-21
9.28689306071562e-22
2.97931680099306e-22
2.4149331605133e-21
1.04608982338819e-21
2.26840349675826e-21
5.72339258832919e-21
1.50327898195336e-21
1.67645298186167e-21
2.18657949639569e-20
5.6421046854295e-22
3.67368155059856e-21
8.77587243342171e-22
2.18750453416442e-21
3.06383803176438e-21
3.579590964484e-21
3.6698108614741e-21
2.34103582630123e-21
6.26276921653102e-21
4.17634235692151e-21
3.6926338704378e-21
4.51390352999535e-21
1.86115928786063e-22
7.54861904563535e-21
7.31744797552708e-22
4.94566707473603e-21
1.06398946631879e-20
3.303059622592e-22
2.18966495214372e-22
3.88079281245788e-22
1.23000949165046e-20
1.02195924297045e-20
4.71662969848612e-21
2.14447408381456e-21
4.37992255793071e-23
4.70486128288176e-21
3.82987724243784e-21
1.21052912772701e-20
9.43458538462853e-22
1.33477842978155e-21
2.4477868805229e-21
2.63262855105988e-21
3.81620147715063e-21
8.04171873959615e-21
1.53017672820888e-21
2.14498121349378e-21
5.44804104532202e-21
7.11808997739593e-21
4.48847720872941e-21
1.18322336212821e-21
7.27138395893901e-21
6.64084315119398e-21
1.43993476461708e-21
1.53914524703336e-21
3.76373356677064e-21
1.56689618242695e-24
4.09519170109918e-21
6.78709844739838e-21
1.11564642769569e-20
3.32133130737021e-21
7.81528717915685e-23
2.19773304198832e-21
9.50328084298032e-21
1.20996213876623e-20
1.70334094768224e-22
8.41437024107662e-21
1.83040782662053e-22
1.41851164219883e-21
6.35225150174949e-21
1.0595950196747e-21
6.22658658083131e-22
5.14701721017828e-21
9.85559256898218e-21
2.16196736651215e-21
7.82129397217882e-22
1.61285596221168e-21
1.94910588539791e-20
1.73688848707873e-22
3.15369351195043e-21
4.65629238461414e-22
5.208625405363e-22
5.02921903579219e-21
7.67840473713544e-22
5.13893201639096e-21
2.75132325439842e-21
2.51658222853403e-21
7.55328614356831e-22
9.10394945311529e-21
5.95899944109921e-21
5.24155926209018e-21
5.62113562983278e-21
7.38305645486623e-22
3.7046677953977e-21
5.32197479699361e-21
7.30676929559571e-22
4.32149499968831e-21
1.16516853064651e-21
5.45780782115462e-21
4.22315672883147e-21
3.00314242201766e-21
1.04503264246125e-20
2.68329918953083e-21
2.33258869641456e-21
8.95981446990136e-22
3.88518906913165e-21
4.44315656736579e-21
6.705299305933e-22
1.87763366785262e-21
1.81861689848078e-21
3.53270752487202e-22
4.49606731568517e-21
1.33700341946212e-20
1.10694042116404e-21
3.36682481400139e-21
3.80319942344458e-22
2.45615170453312e-21
1.18559275688002e-20
5.82871058159468e-21
2.40138129072359e-20
4.56296660527055e-22
3.05155724536815e-21
6.4823449146704e-21
9.65331728982859e-22
7.56859046087836e-21
1.22495137300823e-21
1.95867642328011e-20
3.92555522467439e-21
2.0101218691403e-21
9.43490007326756e-22
3.32622946565909e-23
2.38033071750891e-21
6.7550387208128e-22
4.12559204015349e-21
8.53096938308097e-21
1.50311473550066e-20
1.44613292777672e-21
2.44293675010962e-22
9.22309186694628e-22
2.13765957604259e-22
4.17453902060256e-21
8.43054078366978e-21
3.74473575749063e-21
3.71877084220494e-21
1.10984252215956e-21
9.33493778566599e-21
4.7709750478018e-21
8.64431457257055e-23
2.08600164029965e-22
5.04054591689961e-21
4.79389032650934e-21
5.76786585435174e-21
7.91853409285196e-21
5.63405810668979e-21
1.20240630978587e-20
4.81692542548452e-21
1.43337114324113e-21
1.13305794012008e-21
1.89710731829546e-21
9.62886668764959e-21
8.76798316086225e-22
1.7744981554517e-21
4.24662987499924e-21
1.67258391893884e-21
3.63577977200212e-21
2.33310390252123e-21
5.68832769392552e-21
1.18960410306192e-20
4.33053058234776e-23
5.57947326650584e-21
3.25621335808189e-21
3.71379686779069e-21
6.19358379918066e-22
1.03816468688276e-20
2.68031762713353e-21
2.71418241343561e-21
4.2590506088913e-21
3.59595172673684e-21
9.21499718669892e-21
9.79349684094515e-21
6.17159389249986e-21
5.31758932176928e-22
1.31962938706491e-20
1.88769403174669e-20
3.16613383820002e-21
5.61371979818691e-21
7.99505409829928e-21
3.53869634298719e-21
3.15203609981338e-23
6.23142314305018e-21
1.34651273531816e-21
1.56046213576578e-22
5.40106815240661e-21
3.62315037984165e-21
1.84132838684837e-21
1.24610183019881e-22
5.9992219955554e-21
1.01319904062613e-21
5.53837636860484e-21
1.83776934758253e-21
3.24861398013516e-21
4.17757880752143e-21
2.23977952557293e-21
9.97883152407666e-22
8.95545897026528e-22
1.73912831650646e-20
1.94079119122206e-21
7.93553174794577e-22
4.91988379327643e-21
4.9721984294529e-21
4.18670293118125e-21
1.74681530381628e-20
1.08025953501481e-20
4.31887219413637e-22
1.08338689905508e-20
7.76032449894117e-22
5.67474355615488e-22
1.45537560014095e-21
8.48785754476644e-21
5.19412678322067e-21
3.20593915350064e-21
2.71712995994829e-21
1.83563238034757e-21
5.14258475900793e-21
2.13037271968225e-21
2.54258363551464e-21
4.30534667346091e-21
1.74332049143434e-21
4.90857264487523e-21
7.5922151197035e-22
1.79051915050183e-21
6.07588270756171e-21
3.18948189766511e-21
2.19660803778524e-21
4.30017230362866e-21
6.16908277767748e-21
4.15048325382979e-22
4.0163911445594e-21
7.17745461338586e-21
1.05049453376173e-21
8.69749443687328e-22
3.8667403217729e-21
1.17856510770765e-21
3.45580959442194e-21
5.50062642905686e-21
4.16765515142835e-21
4.01304034780512e-22
6.17640985201531e-21
6.69061416124183e-22
6.97279252154874e-21
1.37157259228828e-21
9.49639330689046e-21
1.51578383181295e-21
2.045625036276e-22
2.71138352112255e-21
3.81281260570869e-21
1.0601120980513e-20
4.28469172232044e-21
9.04237617128323e-22
3.33400865122332e-21
2.21744541715905e-21
5.12476887744073e-21
2.89082416061722e-21
2.16297907746429e-21
1.98097194805374e-22
7.27957042184221e-22
4.86123323254191e-21
5.55096950999468e-22
2.78938600206771e-21
5.76980537936629e-21
8.4099078049334e-22
8.03739082264194e-21
6.07304988234403e-22
1.1549774551703e-21
1.37789315519125e-21
2.75354656252095e-22
6.98070232565431e-24
7.18597635674651e-22
1.79881719844881e-21
8.1615442528134e-21
1.51556091198692e-21
6.97407747555795e-21
4.28260849083348e-21
1.00776806332562e-21
1.01608447144592e-20
5.07909978818107e-21
5.8163274358205e-22
1.13913187906768e-22
3.87214192987379e-21
3.25576574113883e-21
2.5242936527328e-21
3.46912303750528e-21
1.95674159799658e-21
9.59423594528171e-21
1.25943314664354e-21
4.27492837156595e-21
1.08534906214235e-21
1.53718514298287e-20
9.31963606111366e-21
1.59993507015109e-21
1.74077500718874e-22
2.2619433799901e-21
9.96519988020387e-21
4.97563670260471e-21
8.71319959154046e-21
1.93419937813838e-21
1.14081851039589e-21
1.25971050273214e-21
3.3370737977125e-22
2.51584484026196e-21
1.74735981364076e-21
2.7808073863401e-21
3.61989351847288e-21
7.53563769726185e-21
1.51256895112182e-21
4.08352300102083e-21
4.21131975106309e-21
7.98639638976185e-21
1.72445228792097e-22
1.75545800422535e-20
4.75598130356425e-21
1.65926224144483e-21
1.93907991100568e-21
8.40906175086273e-21
8.28010006108522e-21
5.2322629686139e-21
1.01185479841965e-22
3.65741595303427e-21
1.38154485612779e-21
6.50762050884002e-21
3.9328744559107e-22
1.08634151414304e-20
3.0856879863197e-21
7.86646865971973e-21
1.39959066275749e-21
1.35902419030669e-20
9.85280700558759e-21
5.61787982992741e-21
2.2830775810936e-21
1.56340377049943e-21
1.5701697581797e-21
3.50235256512894e-21
1.5532795208288e-21
7.35811703337064e-22
3.26946478528709e-21
9.22704856652257e-23
8.16331916458191e-22
3.17944304552241e-21
2.2159721027178e-21
2.57443902359302e-21
4.12192133485368e-21
8.79538868408603e-22
1.1654609726096e-21
1.69998008049405e-21
6.20722943846118e-21
2.98070540119956e-21
6.9268855814685e-22
4.18569268104541e-21
6.56504321370751e-23
2.29660403534994e-21
8.30049123882615e-21
2.04563100244133e-21
8.51103718197709e-21
2.252269267249e-21
4.64262812007083e-21
2.28464100888167e-21
4.51336919541909e-21
7.17066217511408e-22
5.17624629414495e-21
8.0280386522718e-21
1.83136293974834e-21
1.01758628514239e-21
3.01370957896329e-21
2.1924771802776e-22
4.73027748126273e-21
6.16489581097509e-21
6.18220292282354e-22
1.46046197040609e-21
1.40769413212374e-20
9.75451160415394e-21
1.54307261024123e-22
3.301500112192e-21
5.01095655621503e-21
1.10135322380486e-20
4.40607489945295e-21
6.57787308418641e-21
6.90918408811925e-22
2.77789707893384e-22
1.02028084341313e-21
1.14657291324635e-21
1.66236032058139e-21
1.55412809848387e-21
4.07523365427832e-21
1.85155987781675e-21
1.22202575273476e-21
5.39719426019389e-21
2.49151451140444e-21
3.3136283771537e-21
5.07454621820771e-21
3.06742149821619e-21
2.19125770795999e-21
6.65833825196165e-21
2.50097018378645e-21
2.9563177325986e-21
6.06671016781313e-21
5.91637234971246e-21
1.71722679938579e-21
9.46740386794309e-21
1.03868524113981e-20
6.21740846183943e-21
1.25764754469724e-20
8.82878080806292e-23
2.34253017208528e-21
2.15234791950633e-21
3.17226811831845e-21
1.0886548314819e-21
4.33955972180929e-21
3.4952366383592e-21
2.93714612614003e-21
4.01656291562624e-21
2.46106875152437e-21
2.09580022397461e-21
5.99829494837723e-22
4.28820135115293e-22
1.80815353296234e-21
3.7580275756573e-21
1.83230270764652e-21
3.01243571451568e-21
6.39902527867844e-22
7.54164332392338e-21
1.71334614116054e-21
1.25155029676642e-21
1.31769395855025e-20
8.66298664817098e-22
7.4521555315411e-21
9.32730613896897e-21
2.67642114876425e-21
5.04487157924892e-21
2.22003608175173e-21
4.17665123471945e-21
1.11943458108587e-21
3.25604416545321e-21
2.63267734594263e-21
2.38658850215698e-20
6.41818815770023e-21
1.25972806702847e-21
1.45667229434009e-22
5.4737501557908e-21
5.51086061273613e-21
6.42512359888365e-21
4.49999735302824e-22
4.56265595363746e-21
2.89718814316806e-22
3.29481692886137e-23
7.51167140934132e-21
7.57842334413049e-22
5.27464316060673e-21
1.84377979667741e-21
3.69350811913768e-21
7.65755519825712e-21
8.18622316294736e-23
3.03894489736342e-21
6.29940043374537e-21
1.14364513975123e-20
7.31319325381285e-21
3.53914039921503e-21
6.70322889307193e-21
2.22749410092799e-21
1.89241939228603e-21
2.6891583779379e-21
1.83751145077788e-21
1.44838929708814e-20
2.55494369654355e-21
6.00472662082512e-22
4.10217982407156e-21
1.62416715281289e-21
5.37253519943561e-21
2.00347122218315e-21
5.39207025075234e-22
1.24308700096032e-20
6.94655092274339e-22
1.21219432806925e-21
1.80412988895996e-21
7.89964111706084e-21
7.19207793211949e-21
1.03678096811972e-21
4.4510901463672e-22
5.51198061320625e-21
2.2950657780585e-22
3.9474994380776e-21
2.42407487468966e-23
1.58835564813794e-21
2.96123691710259e-21
6.50746051560988e-22
1.59212733304627e-22
6.17282008626858e-21
1.29787469645747e-21
4.73160234194488e-22
5.88872656732288e-22
6.50338232497842e-21
3.41852521573865e-22
2.15190163446843e-21
4.67558002759393e-22
7.09983202258432e-22
6.34650654236948e-23
1.39363224007425e-20
5.27202603068984e-22
6.06679419863416e-21
1.97414195485272e-21
1.91173815554759e-21
2.05795079176174e-21
8.72053069295616e-22
3.93502083398716e-22
4.69906051681652e-21
2.96625534723362e-21
4.10587910372087e-21
6.35169311729037e-21
8.64641277870333e-21
5.06207768443086e-22
2.46429798731939e-21
1.30665180158421e-21
2.3150991165767e-21
3.97945969242192e-21
5.0789138352688e-21
7.76639800125659e-21
2.68326918587476e-21
6.25814294712041e-21
7.82403134872904e-21
2.36200437090366e-21
7.82728729260726e-21
8.36486759576017e-22
7.26046045939448e-21
9.83574253942537e-21
1.01849876716505e-20
3.54950451987784e-22
2.96076381069845e-21
5.01162628728815e-21
1.62284147794816e-20
2.9349969772315e-21
1.11604137579732e-20
2.75944834490908e-21
1.23595342444369e-21
1.04019797708557e-20
1.20000687784504e-20
1.40738582943485e-22
3.18065597223789e-21
2.32490322235603e-21
4.28229921927682e-21
2.7024801572913e-21
5.77085584857326e-21
4.73003948920041e-21
1.31224930609743e-21
8.61626920255854e-22
7.3566159955381e-23
2.64153031551761e-21
7.71265257822975e-21
3.17688706113968e-21
1.54759478663133e-21
5.37284737327983e-21
2.24667189915477e-21
9.41153597822161e-22
1.64627726811123e-21
3.23967356417064e-21
3.40712530000811e-21
3.17258384136358e-21
1.02295207937736e-20
3.5165829480943e-21
2.9246306784972e-21
1.74059754349847e-21
3.5202951670222e-21
5.17369262275477e-22
3.41679984885327e-21
1.74433680823627e-21
1.23396432120725e-21
2.46942884628084e-21
6.27742270176768e-22
1.83438663425175e-21
1.03146104738047e-20
3.4602474319082e-22
7.75282456670184e-21
2.01778255980198e-22
4.48046950561661e-21
3.14771370621451e-21
1.60432155617538e-22
9.00598860268673e-22
3.27764617650428e-21
3.2132165333398e-21
3.96135794484605e-21
1.20612085738548e-21
1.04063086678062e-20
1.73233701239166e-21
1.07904440382291e-20
1.11333913716867e-21
2.17646570896265e-21
1.10822279740286e-21
1.32552553016749e-21
8.69235443654328e-21
4.99668272787699e-22
5.65493325506991e-21
4.42810721637708e-22
8.84107270351902e-21
2.22270216751223e-21
8.8991577298393e-21
1.57945191174709e-21
6.24418430502494e-21
1.2651020491883e-21
3.13732421756454e-21
8.80873178598516e-23
7.53460587870899e-22
1.8572756940747e-22
3.36081804207082e-21
9.22661476353726e-21
2.07274561417912e-21
4.26924673545783e-21
7.02528107298616e-22
2.57096651698856e-21
1.09628008356286e-20
1.78163844336067e-21
6.28167498756472e-21
3.75006844472675e-21
3.11948669707616e-21
2.99504122145425e-21
2.16322858054401e-21
6.55093743274027e-21
3.06452070214781e-21
3.7260485711427e-21
3.47655283816947e-21
2.06596346833604e-21
6.50586739092534e-21
1.0954522912334e-21
2.5619682362091e-22
4.89619013382957e-21
2.57464529348925e-21
2.51526235152368e-21
2.80406624363308e-23
6.59585891150264e-22
3.00482729370383e-21
9.70054784894416e-22
3.60526470982136e-21
1.18764649458898e-21
2.3486066075408e-22
2.21627332518194e-21
2.37309522281325e-21
5.35604132478787e-21
3.4993533702421e-22
1.27090006154942e-22
1.17549845786268e-21
4.93879815632493e-22
1.09542961966121e-20
5.48082036415278e-21
1.04833890909401e-22
2.48826646226158e-21
4.92040381480871e-21
1.08679297272483e-20
8.43808112596163e-22
2.21871128256904e-21
4.57207775122642e-21
3.16341606026918e-22
6.7163377275631e-22
8.08612237023457e-21
1.9512656902625e-20
7.04301898400398e-21
4.35627445724057e-22
1.67417968038371e-22
1.75157032203769e-20
2.84846824493837e-21
5.10177705494237e-22
6.43420450050319e-21
1.42681225809055e-22
1.0972233630635e-21
3.58285934331158e-21
6.59414647496709e-21
4.08160762558624e-21
9.4017377188899e-21
3.13707876074702e-21
1.07967817466311e-22
5.53149721213562e-21
1.20050292035133e-21
2.08182913477807e-21
1.10010647513219e-21
3.00295065164213e-21
2.48202952135734e-21
2.18123894209297e-20
9.75474897116158e-21
4.31937018252377e-22
2.33106296320579e-21
1.55212687219505e-22
3.37980134529938e-21
1.12570722924929e-21
6.56305147708948e-21
6.76628726314955e-21
3.0536384385269e-21
1.38024084009944e-21
3.83669369260042e-21
8.72293857546284e-22
5.30931957541815e-22
2.2678551931104e-20
5.5837257014543e-22
6.0981747298447e-21
1.20643461728316e-20
2.27829884283248e-21
5.41959490139467e-21
9.36481745104589e-21
2.24196196144593e-21
6.60003502279254e-22
1.05399167913304e-21
5.8661882798936e-21
4.9240837433246e-21
2.73572148672825e-21
1.31112072737973e-21
7.0818717838273e-21
3.98603027696183e-21
9.42214731613856e-21
1.32710745896902e-21
1.1968548519877e-20
3.38034403224927e-22
1.20066283859695e-21
4.51132159601362e-21
5.25332828843572e-21
1.746690400701e-21
3.84137415758689e-21
5.47817767361046e-21
4.22416348379144e-21
4.89355723160978e-21
1.97810677684173e-20
2.41234042940277e-21
2.81342326075406e-21
1.09596976754942e-21
2.52624884437125e-21
2.48320907835572e-21
3.34077532628496e-21
6.20312991802542e-21
8.30295178047492e-21
1.57816875607998e-21
1.57881552851382e-21
9.40632941257171e-21
1.345337316691e-20
3.60479971640641e-21
1.76776453436466e-21
1.01484615387637e-20
7.18046900622924e-21
9.05415037651005e-22
4.32737720387514e-21
2.63732892208012e-22
6.00868407971858e-21
2.35889615067568e-21
1.57309032302324e-20
2.84068060248926e-21
7.56748693326698e-21
8.27615118976628e-22
2.59953921801748e-21
1.02308935586591e-20
1.05231657228964e-20
2.40229346545574e-21
5.5913498566848e-21
7.97612593485755e-22
1.9965412763446e-21
1.3028651951991e-21
2.2849202279714e-21
7.39148154000707e-23
1.08725888101199e-20
3.27410280767728e-22
7.40653208261508e-21
1.92947535339348e-23
1.70901387679157e-21
1.68741612445705e-21
1.74655244846463e-21
8.88251561941399e-22
9.76529600897051e-21
7.47760250117649e-21
2.50081872089914e-21
4.38782569772126e-21
3.39743517149702e-21
4.35189093385411e-22
1.52774266199486e-20
3.09296468624285e-22
7.40635417291609e-21
5.57442895011393e-23
4.53067132029022e-21
4.06520556118057e-21
7.36266709921758e-21
1.52414987333715e-21
1.10076237569624e-20
7.60739168929088e-21
8.71503769251244e-22
7.34135806384679e-21
1.67540631740336e-21
1.60624023153914e-22
1.30768517720361e-21
1.69306100011009e-22
2.02441261938709e-21
1.87422290279832e-21
1.71281608650737e-21