/*--------------------------------*- C++ -*----------------------------------*\
  =========                 |
  \\      /  F ield         | OpenFOAM: The Open Source CFD Toolbox
   \\    /   O peration     | Website:  https://openfoam.org
    \\  /    A nd           | Version:  7
     \\/     M anipulation  |
\*---------------------------------------------------------------------------*/
FoamFile
{
    version     2.0;
    format      ascii;
    class       Cloud<dsmcParcel>;
    location    "0/lagrangian/dsmc";
    object      positions;
}
// * * * * * * * * * * * * * * * * * * * * * * * * * * * * * * * * * * * * * //

3337
(
(0.330840910319104 0.301171919796683 0.203784712124683 0.164202457759529) 0 0 2
(0.45002586953342 0.0492419851943851 0.191924918442941 0.308807226829254) 0 1001 2
(0.448381305672228 0.37935450533405 0.155081378296044 0.0171828106976787) 0 2001 2
(0.201240565627718 0.0903624580242216 0.57612949423492 0.132267482113141) 1 1 1
(0.0899989511817695 0.21157835749902 0.247298649977965 0.451124041341245) 1 1002 1
(0.546027685049921 0.13267480395732 0.143523778766394 0.177773732226365) 1 3002 2
(0.326057391241193 0.340813311282602 0.0141548775136471 0.318974419962558) 1 4002 2
(0.437732222955676 0.00393569562584048 0.196728070266545 0.361604011151939) 1 0 2
(0.131907627452165 0.473018536809858 0.388981700874839 0.0060921348631382) 2 1003 1
(0.00124299759045243 0.090928003191948 0.722778666764509 0.18505033245309) 2 1003 2
(0.271800873335391 0.408961709123135 0.157475734595239 0.161761682946235) 3 3 2
(0.360132724512368 0.0484015601687133 0.098356430418838 0.49310928490008) 3 1004 2
(0.0414178702048956 0.648506359197189 0.306768581271182 0.0033071893267334) 3 2004 1
(0.0282475971616805 0.212440979201347 0.675189195666432 0.0841222279705412) 3 2004 2
(0.184445670805793 0.0241597425192987 0.0624349531717599 0.728959633503149) 3 2 2
(0.194326058030128 0.101553469430655 0.0254456861876278 0.678674786351589) 4 4005 1
(0.386412954889267 0.381736909504965 0.0378195187076778 0.19403061689809) 5 5 2
(0.19577324623242 0.0426816702820361 0.0139505970292146 0.747594486456329) 5 4006 1
(0.209646994248033 0.209839675109807 0.00189798418435174 0.578615346457809) 6 1007 1
(0.269099712837487 0.559878885280341 0.0542340977116559 0.116787304170516) 6 1007 2
(0.246277694124728 0.314675763249397 0.0404304643161873 0.398616078309687) 6 3007 1
(0.158596982713842 0.451786863151911 0.191980979870978 0.197635174263269) 7 7 2
(0.240227099973708 0.225245345849544 0.37306096125387 0.161466592922878) 7 2008 2
(0.262462859973311 0.237573096062991 0.290172436274588 0.20979160768911) 7 3008 2
(0.0286641195416451 0.0409556417727058 0.520460433792215 0.409919804893434) 8 1009 1
(0.635020129848272 0.142426606267715 0.0745185296982527 0.148034734185761) 8 4009 2
(0.207677015103518 0.353132920339644 0.27241818793118 0.166771876625658) 9 9 1
(0.366320092231035 0.140856480225921 0.0877697183750343 0.40505370916801) 9 2010 2
(0.505002559162559 0.182180838193803 0.237808984238654 0.0750076184049834) 10 10 1
(0.0698223612271248 0.170507356990129 0.0433677593246001 0.716302522458146) 10 3011 1
(0.0307498727925121 0.236063874792271 0.584904222749174 0.148282029666044) 10 4011 2
(0.399566831532866 0.565552230924285 0.00986924907200904 0.0250116884708405) 11 1012 1
(0.0611892440356314 0.353560925926968 0.356704166159079 0.228545663878322) 11 2012 1
(0.149898431263864 0.295721576549103 0.00677385320886969 0.547606138978163) 11 3012 2
(0.422689117491268 0.032670681830484 0.131470400840032 0.413169799838215) 12 12 2
(0.411258397623897 0.188449249602854 0.163919800892477 0.236372551880772) 12 3013 1
(0.277117972727764 0.0691505703144279 0.509678464848599 0.144052992109209) 12 11 1
(0.0879409080370782 0.472016318701232 0.0985944243148209 0.341448348946869) 13 13 2
(0.376632120925933 0.374796811956912 0.0951106473803545 0.1534604197368) 13 1014 2
(0.0501983547583223 0.38348495401442 0.106484440155334 0.459832251071924) 13 2014 2
(0.510230387095362 0.0412523658014861 0.324218086898324 0.124299160204828) 14 2015 1
(0.0163937364704907 0.116453042719513 0.622820249758671 0.244332971051325) 14 2015 2
(0.0688972701318562 0.11204639822245 0.818648748565465 0.000407583080228331) 14 4015 2
(0.0206486629322068 0.247443181462591 0.352087691891944 0.379820463713259) 14 13 1
(0.206973243504653 0.158711696974988 0.136745975352878 0.49756908416748) 16 16 2
(0.00761495996266603 0.364402123261243 0.587079859338703 0.0409030574373882) 16 1017 2
(0.299749400466681 0.218899005558293 0.202835043892264 0.278516550082762) 16 4017 2
(0.211570680607136 0.206262585241335 0.455059007275837 0.127107726875693) 16 15 1
(0.777993177995086 0.0877718990668614 0.0867684758268337 0.0474664471112192) 17 1018 1
(0.26119403494522 0.132506818510576 0.266879360657201 0.339419785887003) 17 2018 1
(0.238612954504788 0.0312517681159466 0.086483770981431 0.643651506397834) 17 3018 2
(0.334649842698028 0.104909861926039 0.2194431158714 0.340997179504534) 18 18 1
(0.147638001479208 0.549749560654188 0.0754658738151193 0.227146564051484) 18 3019 2
(0.487412167713046 0.042061046231538 0.13789971591903 0.332627070136386) 18 4019 1
(0.243189801927656 0.0607984717935984 0.561758891679347 0.134252834599399) 18 4019 2
(0.436600035987794 0.360098186880402 0.147825436666556 0.0554763404652476) 19 2020 1
(0.422494834288955 0.0618410916066688 0.131861834786832 0.383802239317544) 19 3020 2
(0.502836367115378 0.119180497713387 0.319474831689099 0.0585083034821357) 20 1021 2
(0.542952087242114 0.181507697794608 0.0792144970037254 0.196325717959553) 20 19 1
(0.245576961897382 0.129778857342865 0.0950945075601339 0.52954967319962) 20 19 2
(0.215316121000797 0.571197177283428 0.141959717031606 0.0715269846841693) 21 1022 1
(0.386827867943794 0.357315371744335 0.116359685547659 0.139497074764212) 21 3022 1
(0.156373516656458 0.0552250389010201 0.32790254149586 0.460498902946662) 21 3022 2
(0.275339775718749 0.174817008897662 0.531200721394351 0.0186424939892386) 22 4023 1
(0.0833657826296985 0.642191682942194 0.0891712410375476 0.18527129339056) 22 4023 2
(0.3903589341789 0.108964946121002 0.00364800682293814 0.49702811287716) 22 21 1
(0.276249019894749 0.253969437442671 0.2987031317316 0.17107841093098) 23 3024 2
(0.427283786237363 0.485292922239689 0.0185579168609661 0.0688653746619821) 23 22 1
(0.0308126737364141 0.0287046106531964 0.252339889295399 0.68814282631499) 24 24 1
(0.316170593257993 0.0780890919268131 0.385015552397793 0.2207247624174) 24 2025 2
(0.0604013036937814 0.596038185525621 0.31471175840118 0.0288487523794174) 25 25 2
(0.505208469927087 0.188006428070478 0.207140993792564 0.0996441082098709) 26 26 1
(0.0484863184392453 0.335951189976186 0.383656058926201 0.231906432658368) 26 3027 1
(0.469203369226307 0.0184360067360193 0.392506720032543 0.119853904005131) 26 3027 2
(0.407265213318206 0.0869117723777705 0.366090717259776 0.139732297044247) 27 27 2
(0.40890165604651 0.0287045422009615 0.107941508293203 0.454452293459326) 27 1028 1
(0.104148956947029 0.180591101292521 0.575268453452739 0.139991488307712) 27 1028 2
(0.0644324054010212 0.167817686684355 0.68616467481479 0.0815852330998332) 27 3028 2
(0.4630262176506 0.314412530511628 0.129730201326311 0.0928310505114603) 28 28 1
(0.219121422152967 0.00363725889474105 0.517024947330355 0.260216371621937) 28 28 2
(0.221642819233239 0.390822416171423 0.246643284801394 0.140891479793945) 28 3029 2
(0.233433992601931 0.0880293278023601 0.0975993829779521 0.580937296617757) 29 1030 2
(0.149322529323399 0.193878229241805 0.366626194212599 0.290173047222197) 29 2030 1
(0.239258061163127 0.447745789308101 0.214726438280202 0.0982697112485694) 29 2030 2
(0.108017089776685 0.62926464201883 0.186506399419164 0.0762118687853217) 29 28 1
(0.132140375673771 0.54259901214391 0.0290399980731577 0.296220614109161) 30 1031 2
(0.0874581439420581 0.0718150790779919 0.531300844159064 0.309425932820886) 30 2031 1
(0.494896318763494 0.273051540832924 0.128945283591747 0.103106856811834) 30 3031 2
(0.224015447776765 0.142755067441613 0.23087748745452 0.402351997327103) 30 4031 1
(0.0840205424465186 0.307936038356277 0.409180345945063 0.198863073252141) 30 29 1
(0.254410042427504 0.432878924999374 0.219814394600677 0.0928966379724443) 31 31 2
(0.159526272211224 0.00337968952953816 0.362283444963376 0.474810593295862) 31 1032 2
(0.283556865528226 0.061837550252676 0.0387542904355124 0.615851293783586) 31 4032 1
(0.0571043798699976 0.621190493926331 0.236058461945504 0.0856466642581675) 31 4032 2
(0.0452340724878663 0.380790784489331 0.0759846637956474 0.497990479227155) 31 30 1
(0.151574126444845 0.184312812518284 0.174260220024735 0.489852841012136) 31 30 2
(0.185595563612787 0.387436753138945 0.132863804232329 0.294103879015938) 32 32 1
(0.419243734329939 0.228180111851583 0.0022217761725187 0.35035437764596) 32 3033 2
(0.736851367168141 0.0768515304662224 0.0497591206803918 0.136537981685245) 32 31 2
(0.129112113732791 0.0421685292385789 0.0107724638656052 0.817946893163025) 33 33 2
(0.275693174917251 0.292213615495712 0.264011291321315 0.168081918265722) 34 2035 2
(0.114048836287111 0.232981478329751 0.071888295467943 0.581081389915195) 34 3035 2
(0.470930733717978 0.0738979247398853 0.155065474100393 0.300105867441744) 35 1036 1
(0.490427166689187 0.00454294076189399 0.251455565448934 0.253574327099985) 35 1036 2
(0.340733978897333 0.358150144573301 0.0387681080028287 0.262347768526537) 36 3037 1
(0.0998691511340438 0.515369295142578 0.151925823651254 0.232835730072124) 36 3037 2
(0.0156903122551739 0.367590799462019 0.0968883028253913 0.519830585457416) 36 4037 2
(0.460603128187358 0.284924221225083 0.100646023172878 0.153826627414681) 37 1038 2
(0.146241502370617 0.151092683896456 0.206168016884476 0.49649779684845) 38 38 1
(0.4077907493338 0.504704065155237 0.0847893333993844 0.00271585211157798) 38 37 1
(0.00288257421925653 0.56302090268589 0.170744715724072 0.263351807370782) 39 2040 1
(0.4008278972469 0.108655350748463 0.122559738811105 0.367957013193531) 40 40 1
(0.163831301033497 0.0390783157199621 0.178807409014544 0.618282974231997) 40 1041 2
(0.151766198687255 0.0822141608223319 0.730118858627987 0.0359007818624259) 40 3041 1
(0.344741690438241 0.129185458645225 0.331310065463202 0.194762785453332) 40 4041 1
(0.192430967465043 0.169940665364214 0.211418868042529 0.426209499128214) 40 4041 2
(0.235608865506947 0.0412134020589292 0.341525192372518 0.381652540061606) 41 1042 2
(0.661521065048873 0.251706283073924 0.0324954106472433 0.0542772412299595) 41 3042 2
(0.2853486058303 0.237610350828579 0.0243998039513441 0.452641239389777) 41 40 1
(0.803597921971306 0.0234237862750518 0.151335098314993 0.0216431934386492) 42 41 1
(0.158721036277679 0.320779422763751 0.354609119240211 0.165890421718359) 43 43 2
(0.0538254017010331 0.732986998744391 0.194099219050258 0.019088380504317) 43 3044 2
(0.152675887104124 0.015326268505305 0.448344065807737 0.383653778582834) 43 4044 1
(0.446822647936714 0.019849486183339 0.447185972239786 0.0861418936401605) 43 42 1
(0.0242797872051597 0.414650578983077 0.203495008871011 0.357574624940753) 44 1045 1
(0.353340434841812 0.149492451455444 0.488953909836678 0.00821320386606675) 44 2045 2
(0.105626980774105 0.0437078191898948 0.840076759923231 0.0105884401127695) 45 1046 1
(0.250576174352318 0.0848824977874756 0.518891133833643 0.145650194026563) 45 1046 2
(0.335599795915186 0.0112145678140223 0.133605658542366 0.519579977728425) 45 3046 1
(0.447236118372541 0.0575073640793508 0.362354165874422 0.132902351673687) 46 46 1
(0.205321693327278 0.59180954564365 0.126276774331905 0.0765919866971672) 46 2047 1
(0.213579515460879 0.541877909097821 0.0372887398116665 0.207253835629634) 46 2047 2
(0.0376353934408099 0.0557018909602925 0.569001820404039 0.337660895194858) 46 45 1
(0.0370458313264819 0.350787457544313 0.184037019032985 0.42812969209622) 46 45 2
(0.480381868313998 0.0920077213085892 0.132788348011702 0.294822062365711) 47 1048 1
(0.29519118508324 0.480759641621238 0.146597105544084 0.0774520677514374) 47 2048 1
(0.246054295916137 0.137772426940487 0.116656033322215 0.499517243821161) 48 48 1
(0.269833076745272 0.150982945691794 0.353009600192361 0.226174377370573) 48 2049 2
(0.448400938883424 0.0937689221463526 0.00242320355027912 0.455406935419944) 48 3049 2
(0.674796156585217 0.204220173880452 0.0121514676138759 0.108832201920456) 48 4049 2
(0.0784216788597209 0.508871531113992 0.408736256416887 0.00397053360940008) 49 49 1
(0.190677047707059 0.604647335596423 0.076070510782342 0.128605105914175) 49 49 2
(0.119212596677244 0.0430440213531242 0.281670765951277 0.556072616018355) 49 1050 1
(0.272258860059083 0.0638567665591836 0.636517645791218 0.027366727590516) 50 2051 2
(0.259669976308891 0.233129269909139 0.442903438117355 0.0642973156646151) 51 51 1
(0.4932428188622 0.213821361307022 0.243997385725412 0.0489384341053665) 51 1052 1
(0.092709201388061 0.0559923797845898 0.0599696710705757 0.791328747756774) 51 4052 2
(0.0421377886086702 0.567485892213881 0.365325693972399 0.0250506252050502) 52 1053 2
(0.234801367856562 0.38669470325111 0.303433053195477 0.0750708756968509) 52 3053 2
(0.0184303289279342 0.805923092179 0.110232356004451 0.0654142228886143) 52 4053 1
(0.0412959228269756 0.275818629655994 0.564125359989703 0.118760087527328) 52 4053 2
(0.627276900690124 0.0318933553062004 0.102247660979591 0.238582083024085) 53 53 2
(0.294845899567008 0.231279333122075 0.428260365966679 0.045614401344238) 53 1054 2
(0.354144074488431 0.220674167852807 0.166967355180574 0.258214402478188) 53 2054 1
(0.135032491292804 0.319123883731663 0.106437982059974 0.439405642915559) 53 4054 1
(0.250393516849773 0.433180336840428 0.176816848106659 0.139609298203141) 53 52 1
(0.287917913403448 0.0594022106378842 0.473960336763412 0.178719539195256) 54 54 1
(0.295633819885552 0.389652747660835 0.066565026994835 0.248148405458778) 54 1055 1
(0.233286347705871 0.0781073048710823 0.18471731571482 0.503889031708226) 54 2055 2
(0.39182192599399 0.240412152837971 0.0286000859923754 0.339165835175663) 54 53 1
(0.184261665213907 0.0678950343280762 0.382918258197579 0.364925042260438) 55 55 2
(0.111786553170532 0.0704660606570356 0.295696647372115 0.522050738800317) 55 2056 1
(0.10191833274439 0.0729076960124076 0.674641741905356 0.150532229337847) 55 2056 2
(0.181270213797688 0.360135227441788 0.189278602600122 0.269315956160402) 55 4056 1
(0.0589023157953413 0.0454996866174444 0.486979541368783 0.408618456218432) 56 56 1
(0.553003936074674 0.0936482227406758 0.148891900200397 0.204455940984253) 56 3057 2
(0.0220021745190024 0.634037592913955 0.00448137149217367 0.339478861074868) 56 4057 1
(0.0742412628605962 0.513593506068004 0.139440803322941 0.272724427748459) 56 4057 2
(0.328814262989908 0.53432515868918 0.0114274052902971 0.125433173030615) 57 1058 1
(0.550079616252333 0.180022527929395 0.131127508822826 0.138770346995446) 57 3058 1
(0.208060908131301 0.390630691312254 0.286374326795339 0.114934073761106) 57 4058 1
(0.877829123288393 0.0330412592738823 0.00529899913817644 0.0838306182995482) 57 4058 2
(0.243887131102445 0.381985816638886 0.234158088453083 0.139968963805586) 57 56 1
(0.236110426485644 0.065902196336485 0.51792182540521 0.180065551772661) 57 56 2
(0.0390158086084121 0.0239391624927375 0.49880648637189 0.43823854252696) 58 58 2
(0.277061357162906 0.285666214767837 0.0495668528601462 0.387705575209111) 59 59 2
(0.42054043384284 0.489452684763743 0.0694227642379701 0.0205841171554466) 59 58 2
(0.441134822554886 0.342380155809241 0.0253596617840059 0.191125359851867) 60 2061 1
(0.57621945021674 0.126474640797824 0.248623372055589 0.0486825369298472) 60 4061 1
(0.287460970692299 0.464169724844415 0.19272874854507 0.0556405559182167) 60 59 1
(0.185665502678603 0.121523044537753 0.107627560850202 0.585183891933443) 61 2062 2
(0.536792844068259 0.0133908311836233 0.435130872298032 0.0146854524500857) 61 3062 2
(0.0256095603107914 0.479009622707988 0.086252155713737 0.409128661267484) 62 62 1
(0.00265476433560252 0.442289071157575 0.393866637256068 0.161189527250755) 62 4063 1
(0.0390982618556643 0.0468524880706656 0.720951763447374 0.193097486626296) 63 63 1
(0.224622454028577 0.569332093000384 0.188620257191388 0.0174251957796514) 63 1064 1
(0.138717841822654 0.0113880992867053 0.676460226532116 0.173433832358525) 63 1064 2
(0.238393045496196 0.0440447265282415 0.109867720864699 0.607694507110864) 63 2064 1
(0.498246929142624 0.197714413516222 0.0673576593399048 0.236680998001249) 63 3064 2
(0.345829898491502 0.0198102258145809 0.468245057389147 0.16611481830477) 63 4064 1
(0.143522161990404 0.02242528367791 0.0912889232859015 0.742763631045784) 63 4064 2
(0.113046603742987 0.193684276193421 0.387869291938841 0.30539982812475) 65 3066 2
(0.465674515347928 0.128988829441391 0.323299795389153 0.0820368598215282) 66 1067 1
(0.0272836000658572 0.641367934178561 0.0775121874175275 0.253836278338054) 66 2067 2
(0.112942300736904 0.489013775717467 0.0599603843875785 0.33808353915805) 66 3067 1
(0.173576407600255 0.189007233828276 0.491475745569915 0.145940613001555) 67 67 1
(0.424092165660113 0.0753216338343918 0.0830053677781911 0.417580832727304) 67 2068 2
(0.118825857061893 0.569931305944915 0.285506357904524 0.0257364790886684) 67 3068 2
(0.0256379083730002 0.410570392385139 0.462407730054124 0.101383969187737) 67 66 1
(0.178207471966733 0.0939801055938057 0.0024378597736359 0.725374562665825) 67 66 2
(0.269026827067137 0.181742124259472 0.405691048596078 0.143540000077313) 68 3069 1
(0.326925213914365 0.148847837466758 0.418670147191733 0.105556801427145) 68 3069 2
(0.0482025519013406 0.502658175304532 0.0122401728294833 0.436899099964644) 69 1070 2
(0.350186353549361 0.132626968435943 0.473790560383395 0.0433961176313009) 69 4070 1
(0.0386163722723722 0.204109354875983 0.222689165733754 0.534585107117891) 70 1071 1
(0.159858158323914 0.112516331952023 0.452287115622312 0.275338394101751) 70 3071 2
(0.0290032532065564 0.605794782750336 0.0789634902030229 0.286238473840085) 70 69 2
(0.029507510829602 0.187375550624041 0.111348874866962 0.671768063679395) 71 71 1
(0.0577853168360889 0.424159340094775 0.157330989837578 0.360724353231558) 71 2072 2
(0.544935125857592 0.0399016463197768 0.0740849310532459 0.341078296769386) 71 4072 1
(0.130254616960883 0.548388959839936 0.0272251935675786 0.294131229631603) 72 1073 1
(0.145634072832763 0.0487778978422284 0.632965251803369 0.172622777521639) 72 3073 1
(0.303640601690886 0.204293686430887 0.446793311275542 0.0452724006026844) 72 71 2
(0.0629104189574718 0.16040560696274 0.437256336212221 0.339427637867566) 73 2074 2
(0.493938138242811 0.209754219278678 0.169818360824138 0.126489281654373) 73 4074 2
(0.849787034560042 0.0302654192782706 0.0751156685873633 0.0448318775743246) 73 72 1
(0.21969820279628 0.196073051542008 0.544318761210925 0.0399099844507873) 74 2075 1
(0.1857740287669 0.003755362238735 0.210704370401863 0.599766238592502) 74 2075 2
(0.281617742963135 0.346187757328153 0.0371644790283524 0.33503002068036) 74 3075 1
(0.0278528630733638 0.348518465645604 0.17480140924453 0.448827262036502) 74 73 1
(0.463193348608836 0.0759012913331766 0.12360363220796 0.337301727850028) 74 73 2
(0.0339101385325193 0.0666944785043899 0.867313842754811 0.0320815402082797) 75 3076 2
(0.254307771567147 0.42120572086429 0.315495897084529 0.00899061048403382) 76 76 2
(0.211572231259197 0.552412446122617 0.128069920931038 0.107945401687149) 76 1077 2
(0.095612038858235 0.155365361366421 0.739646868314611 0.00937573146073334) 76 2077 2
(0.152894464321435 0.34398019127549 0.364175144582987 0.138950199820089) 76 3077 2
(0.0605780528858304 0.130372079555005 0.258163542486727 0.550886325072438) 77 4078 2
(0.0206465581431526 0.145656167995208 0.168702338356548 0.664994935505092) 77 76 1
(0.325155488681048 0.036397036164999 0.284021969884661 0.354425505269292) 78 2079 2
(0.269974765833461 0.123283035587523 0.544515426270664 0.0622267723083529) 78 77 2
(0.11146678635845 0.0405410681851488 0.508367526344955 0.339624619111447) 79 79 1
(0.215481786057346 0.249090485274795 0.468875667545948 0.0665520611219108) 79 79 2
(0.269366887863725 0.400022216141224 0.0226292195729883 0.307981676422062) 79 1080 2
(0.217390944715589 0.297311810310919 0.000155069865297472 0.485142175108194) 79 2080 1
(0.231277316808701 0.318492627236972 0.178612617775798 0.271617438178529) 79 3080 2
(0.653001612983644 0.0729175144806779 0.187248354777694 0.0868325177579844) 79 4080 2
(0.0625996696762741 0.165881920605899 0.0753579586744302 0.696160451043397) 80 1081 1
(0.577680110931396 0.169323236681521 0.25137709733101 0.0016195550560729) 80 3081 1
(0.18096139933914 0.242547122761646 0.458977477625012 0.117514000274202) 80 3081 2
(0.298067976255065 0.542240311857265 0.0938623780384182 0.0658293338492513) 81 81 2
(0.114006950519979 0.0295835607685289 0.450950074009583 0.405459414701909) 81 1082 1
(0.158360637724399 0.00423780782148241 0.201203395146858 0.636198159307261) 81 2082 2
(0.0732670002616377 0.472531942650704 0.145052080973983 0.309148976113675) 82 82 1
(0.317634040955454 0.192860821727663 0.359183132182825 0.130322005134058) 82 2083 2
(0.513917897362159 0.108456705231271 0.196091586723924 0.181533810682646) 83 83 1
(0.184434986207634 0.193836989812509 0.095217679161622 0.526510344818234) 83 1084 1
(0.129779489245266 0.116742745041912 0.718798301648349 0.0346794640644742) 83 3084 2
(0.163868296891451 0.260875486303121 0.389376333914659 0.185879882890769) 83 4084 1
(0.216104046441506 0.0729633080773601 0.391566549427807 0.319366096053327) 84 84 1
(0.00405931659042824 0.706363364122809 0.14948838064447 0.140088938642293) 84 1085 1
(0.430734779220074 0.210895597469062 0.0367668718099577 0.321602751500906) 84 1085 2
(0.362457753624767 0.486739038955406 0.0330735766329013 0.117729630786926) 84 2085 1
(0.185404598712921 0.257799636106938 0.38339132210236 0.173404443077781) 84 3085 1
(0.0260670068673791 0.120473942253677 0.612873082980514 0.24058596789843) 84 3085 2
(0.136948984116361 0.677407153416402 0.0459099593572319 0.139733903110005) 85 85 1
(0.0108601981773973 0.331689105369151 0.0519668003543599 0.605483896099092) 85 2086 2
(0.460178675595671 0.267819887958474 0.0955044641159475 0.176496972329908) 87 3088 2
(0.00574763352051377 0.647547450382344 0.0111689702607691 0.335535945836373) 87 4088 2
(0.266557987313659 0.327526632696419 0.143458819482505 0.262456560507417) 88 88 2
(0.104384689591825 0.0553933209739613 0.83719911472872 0.00302287470549344) 88 2089 1
(0.0899937003850937 0.215635132510178 0.125609186477959 0.568761980626769) 88 3089 2
(0.0387652153149184 0.174409939907494 0.210959818679839 0.575865026097748) 89 89 1
(0.29559136927127 0.222642997279767 0.444935861043632 0.0368297724053303) 90 90 1
(0.344161434564739 0.475375453010226 0.146167512983084 0.0342955994419509) 90 4091 2
(0.140599196311064 0.657435850705962 0.0187529753893723 0.183211977593601) 91 90 1
(0.259014119859741 0.606108575593702 0.032313158735655 0.102564145810902) 92 92 2
(0.190725598484278 0.306753357406706 0.0399996186607041 0.462521425448313) 92 2093 2
(0.0467206439934671 0.0265611913055181 0.393332355655718 0.533385809045297) 92 3093 1
(0.0856855274178088 0.114947600290154 0.454257694538683 0.345109177753354) 92 4093 2
(0.188923701644054 0.278225711081122 0.372396710328758 0.160453876946066) 93 93 1
(0.0570098632015289 0.259917620569472 0.100651756860311 0.582420759368688) 93 2094 1
(0.206725261174142 0.0369638125412198 0.726811427157372 0.0294994991272655) 93 4094 2
(0.325614945963025 0.138728729914951 0.370577738154602 0.165078585967422) 94 1095 1
(0.0976244946941732 0.434752924367786 0.431004271376831 0.0366183095612098) 94 2095 2
(0.257723597809672 0.130270078312606 0.584097404032978 0.0279089198447442) 94 3095 1
(0.567891907878184 0.0564519548788848 0.177096854429692 0.198559282813239) 95 95 1
(0.0469520618207753 0.412774475757033 0.149084416683695 0.391189045738497) 95 1096 2
(0.213554796297231 0.511740416288312 0.0749763348139184 0.199728452600539) 96 96 2
(0.234120137058198 0.193871719297022 0.553391503170165 0.0186166404746147) 96 1097 2
(0.168646322097629 0.366420311387642 0.0103218760341406 0.454611490480588) 96 4097 2
(0.264077004510909 0.353852958884034 0.312669122591671 0.0694009140133858) 97 2098 1
(0.00190296955406677 0.614881504327059 0.326211185194506 0.0570043409243684) 97 3098 1
(0.482373824808593 0.0332302874886267 0.329167381860393 0.155228505842388) 97 96 1
(0.145570098888118 0.278298010118311 0.0260425605811179 0.550089330412453) 98 98 1
(0.0653353114612912 0.537939628120486 0.180739494040583 0.21598556637764) 98 98 2
(0.0116923954337835 0.0888361809775234 0.548486744984961 0.350984678603732) 98 2099 2
(0.252601213287562 0.144748797174549 0.146296801045537 0.456353188492352) 98 3099 2
(0.0333422599360346 0.328636839520186 0.437682572752282 0.200338327791497) 98 4099 1
(0.346779193729148 0.173769971355803 0.0841046245768666 0.395346210338182) 99 99 1
(0.101686292327941 0.163961330894407 0.160523277707372 0.573829099070281) 99 2100 1
(0.0181234986521304 0.538691279944073 0.251108838245273 0.192076383158524) 99 3100 2
(0.45141687290743 0.0609743106178894 0.430879710242152 0.0567291062325285) 99 4100 2
(0.0702148182316634 0.28968488331889 0.435463026631624 0.204637271817823) 99 98 2
(0.102041041012939 0.0261525912209918 0.602344167884439 0.26946219988163) 100 100 1
(0.0634630355052651 0.0166603745892804 0.385622794274225 0.53425379563123) 100 2101 1
(0.0312148658558726 0.105434525292367 0.843004395719588 0.0203462131321731) 100 2101 2
(0.207838848233223 0.266066276933998 0.411077180411667 0.115017694421112) 100 4101 1
(0.110517863649852 0.0991058223880944 0.04138646973297 0.748989844229084) 100 99 2
(0.0027834614738822 0.388769811019301 0.0246676146052913 0.583779112901525) 101 2102 2
(0.213034243322909 0.082938449922949 0.207226656843006 0.496800649911136) 101 3102 1
(0.178319982253065 0.65102330083025 0.00414604507386683 0.166510671842818) 102 102 1
(0.217008051462391 0.348999215289991 0.418037850875448 0.0159548823721707) 102 102 2
(0.627763754688203 0.00598465278744697 0.0867279432713593 0.27952364925299) 102 3103 1
(0.32198246428743 0.000697059556845271 0.37871460756287 0.298605868592855) 103 3104 2
(0.707170915324241 0.070764890406244 0.114623111672699 0.107441082596816) 103 4104 2
(0.0989070096984811 0.44710922800003 0.169117143377662 0.284866618923828) 104 104 1
(0.0473694144748303 0.486897823866449 0.230178468860678 0.235554292798042) 104 104 2
(0.361819545272738 0.322029329836369 0.294643771368988 0.0215073535219053) 104 1105 2
(0.09478050051257 0.025363240391016 0.0540781356394514 0.825778123456963) 104 3105 1
(0.269149639643735 0.0336270406842203 0.298586238175631 0.398637081496415) 104 103 2
(0.15703889820723 0.218567645177254 0.0345721752382815 0.589821281377235) 105 105 1
(0.488086373545229 0.09274049336089 0.328903249464946 0.0902698836289346) 105 2106 1
(0.277752531692386 0.00875760708004236 0.529676223173757 0.183813638053815) 106 1107 2
(0.115923244506121 0.44033066323027 0.289724299684205 0.154021792579405) 106 2107 2
(0.0094110658392309 0.331219750456512 0.472007841803106 0.187361341901151) 106 3107 1
(0.113712378311873 0.392963505815729 0.0600577197037782 0.433266396168619) 108 108 2
(0.191410163417459 0.0695012076757849 0.263653837144383 0.475434791762374) 108 3109 1
(0.204701305367053 0.431077593006214 0.348070702515543 0.0161503991111913) 108 4109 2
(0.206549433059978 0.754181429278112 0.0175670604221523 0.0217020772397582) 108 107 2
(0.234732397831976 0.485309205017984 0.219241201877597 0.0607171952724427) 109 1110 2
(0.0863862740807235 0.0184672358445823 0.0267499564215433 0.868396533653151) 109 4110 1
(0.0740643721074136 0.257462122477578 0.542298169806586 0.126175335608423) 109 108 1
(0.168749995064032 0.296754455193856 0.371240438893437 0.163255110848674) 109 108 2
(0.00224908627570741 0.0874901618808454 0.332878613378847 0.5773821384646) 110 110 2
(0.15171870123595 0.351785113103667 0.352235409431181 0.144260776229203) 110 1111 1
(0.369638140313327 0.0530896950513116 0.196879339870066 0.380392824765295) 111 1112 1
(0.518716720398515 0.239469584543258 0.149105502758197 0.0927081923000298) 111 2112 2
(0.31385833863169 0.418456396553665 0.0392943588085106 0.228390906006134) 112 4113 1
(0.101403071545064 0.145460433326661 0.583160339388997 0.169976155739278) 113 1114 1
(0.22674185084179 0.304853559006006 0.331985834520307 0.136418755631897) 113 2114 2
(0.0917065958492458 0.578279952052997 0.174899763893336 0.155113688204421) 113 3114 2
(0.362556506413966 0.135483836755159 0.48579149087891 0.0161681659519647) 113 4114 2
(0.0145182237029076 0.228661103639766 0.219497736077742 0.537322936579585) 114 2115 1
(0.0389784290455282 0.612706016283482 0.316990641411412 0.0313249132595778) 114 2115 2
(0.532532844692469 0.111147165298422 0.291027982253581 0.0652920077555281) 114 3115 2
(0.19581691455096 0.663562123198025 0.102543418295681 0.0380775439553334) 114 4115 2
(0.0761997061781389 0.222680197563032 0.232014196924865 0.469105899333964) 115 114 2
(0.0450475830584763 0.684588903561254 0.200400867033731 0.0699626463465393) 116 1117 1
(0.27881479030475 0.0809931308030986 0.395449110306799 0.244742968585352) 116 3117 2
(0.222596018109471 0.0598522620275869 0.699461656156927 0.0180900637060152) 116 4117 2
(0.370513138826808 0.307426127605204 0.145373495295708 0.17668723827228) 117 117 2
(0.0421376456506549 0.236186590511352 0.242849999573091 0.478825764264902) 117 1118 2
(0.0501217469573021 0.0134144728071737 0.733508206438273 0.202955573797251) 117 3118 2
(0.553376865107566 0.370972152799383 0.0452928626909852 0.0303581194020654) 117 4118 2
(0.236515646334738 0.322754730470506 0.260347513016286 0.180382110178471) 118 1119 1
(0.131933349650353 0.28397605754431 0.138100502546917 0.445990090258419) 118 2119 1
(0.0710735553875566 0.0587154035456479 0.720825637225048 0.149385403841748) 118 2119 2
(0.11584510654211 0.605552874039859 0.127680940553568 0.150921078864463) 118 3119 1