/*--------------------------------*- C++ -*----------------------------------*\
  =========                 |
  \\      /  F ield         | OpenFOAM: The Open Source CFD Toolbox
   \\    /   O peration     | Website:  https://openfoam.org
    \\  /    A nd           | Version:  7
     \\/     M anipulation  |
\*---------------------------------------------------------------------------*/
FoamFile
{
    version     2.0;
    format      ascii;
    class       vectorField;
    location    "0/lagrangian/dsmc";
    object      U;
}
// * * * * * * * * * * * * * * * * * * * * * * * * * * * * * * * * * * * * * //


3337
(
(405.052055658057 110.379113408349 131.235603081208)
(-75.2653196241364 -74.1280866828903 -604.71004013798)
(671.262391608089 64.7172407781583 -111.311083817315)
(-327.58839686835 -357.831682608973 -450.256621249051)
(-222.091862712252 398.067908573381 248.193770513075)
(-627.452474094275 166.001534110569 275.823007975019)
(-692.871518932235 320.921976572053 234.056475272423)
(105.678683426565 429.695565015881 -195.044653697715)
(-114.166752374227 94.7567366318032 -369.616413013873)
(53.4541832226523 -564.191206182194 -296.062920232974)
(36.4403665306721 273.297607089016 -194.34320463922)
(-289.254241520786 -8.57703986744924 261.580923056943)
(-145.02218484384 -67.3706171470785 209.678708586945)
(141.123471548136 -139.515312509965 -418.564706635119)
(106.835056722543 -296.824476852851 164.174080581857)
(-400.200688511572 126.391359179247 102.582783284872)
(138.435467759249 107.78677969133 33.0393142539886)
(112.797509175615 -236.781813963113 270.107241744931)
(-325.265411057599 21.6400627157404 172.79384578965)
(-97.4397083587018 -439.149317842175 -54.0176393623752)
(-422.089819486118 -499.086792801361 -449.791770114306)
(690.138878652659 60.1813497719595 -4.84040277147281)
(209.397977777686 257.51928512809 -182.353834002319)
(170.297116335431 -387.201776383499 -112.48437271043)
(128.799136279023 3.51255453883838 311.43793492226)
(68.86249940942 -30.0543424420706 -477.398656595058)
(-53.4738535997771 647.435355872592 149.198447667558)
(318.893403331226 -137.67778703211 -63.6891993656507)
(-85.2397966567321 414.478768710686 11.5326672787413)
(-246.043573182819 256.110033840158 447.52575281286)
(448.433214135024 -424.310716062728 -85.8160299002304)
(68.8801108660727 290.220790738113 -358.952623327483)
(-409.689185610932 -101.735706190381 -65.8452745049186)
(-361.192195778247 -251.337284241561 -180.536630688405)
(-8.39971706858325 -195.706736559522 -199.714529355023)
(-279.168987173753 223.554794047298 -124.493233626943)
(-520.854735736932 -10.182014886226 -307.405306341171)
(404.623845423773 -766.011249441745 267.991699815363)
(-111.26850403011 -157.14635417082 158.145752761835)
(-110.13227566543 56.3725340160458 -379.943410614312)
(-30.0070934214834 -120.118211057096 47.7255263674483)
(162.514347253157 522.24294999923 60.8933446820494)
(-280.674959279816 143.267277070335 -196.793897073706)
(-364.355505523794 -211.66483677712 457.859624821578)
(225.926111807414 318.468258237777 -602.027994169088)
(41.0772387747315 -618.563841526858 -297.106007215246)
(-39.0080064438638 94.6000490916998 -265.509177692846)
(-10.7784722349999 -140.65136472622 -518.656496650164)
(253.684178136703 164.863255315784 -353.290393381122)
(14.8115390984682 568.800911095836 -70.960419138398)
(-215.071072022715 -323.115860330206 39.7191185823705)
(-410.316541026326 268.910872953679 346.808838287183)
(-74.7866446883334 -98.6815155021284 213.633729656835)
(-182.471597020153 -59.6013228970517 150.624331782532)
(134.711284036148 -410.631990834609 170.000806802381)
(114.280130166706 -119.636736462385 -38.7527518483617)
(353.933261637296 -134.46720678329 399.958884284611)
(171.845140449555 -20.4334814216664 487.752256560545)
(-281.312108731675 -148.607927028132 301.332577859559)
(-133.608563686966 44.0281466606557 359.40622971246)
(-231.57309868338 309.419685777579 -398.672551846505)
(7.20936498415676 -25.0831467662688 15.7602941439338)
(-284.24753452631 -40.164374606095 -143.756329086453)
(-138.699209711362 -32.6983721144279 -324.350766616669)
(-651.535268431559 227.707789664608 -222.678211149129)
(-401.786225392855 -292.039539348358 176.138365522794)
(373.124069798244 -659.73216254104 260.005002525064)
(185.704799309967 -88.338462807651 56.6344075919106)
(-480.336358691028 140.059488680404 -168.95948794646)
(-122.149927072981 380.463918756813 -326.435492742058)
(-446.55381803094 109.009371856048 -57.7428153782014)
(391.740603143782 214.498034703362 231.428922281147)
(-376.938918629316 -194.091067910366 484.789753317956)
(-151.139795126329 -167.462668864996 114.539449180674)
(-224.455168773622 80.5282537438981 -535.09926635569)
(-338.826246756625 0.65631109050651 177.374130358423)
(-86.1795517293291 114.822055429068 -101.822914087191)
(279.168074357792 221.215436330357 -81.4566496074221)
(-301.400328036051 422.776702969189 -83.4644964419947)
(-74.6920520321606 306.584974118737 624.435497511385)
(300.014248352136 326.377842379956 446.67226233909)
(428.146850884755 33.8733242090541 142.079131548809)
(-53.500272820349 -182.872294265097 227.045113050407)
(-455.60457601751 -312.786816671904 -312.9263647963)
(316.260356341218 441.285646309983 -28.3122980181601)
(-234.60861512955 -461.209906134679 273.50178870694)
(-185.007996335852 -676.637629677557 42.6332859997464)
(132.663050783489 -102.623435655766 8.35457871026451)
(-376.523462648061 -319.870904221937 -229.770517924264)
(-219.061945481196 -59.4490839968705 -434.974464101727)
(2.3376518114802 -131.382357599063 220.981841757298)
(375.24383197488 517.900589270551 460.097308942973)
(390.223070828108 -20.7509648810854 -50.5874205878136)
(-249.344058667321 213.474031089826 81.4564731821056)
(-85.7072705072169 545.581704389896 -120.02845622441)
(-22.1140854535724 -85.1088514532903 -111.079770279797)
(274.119832335611 -23.7273424186002 155.148438837089)
(-169.837609252063 12.0667926144495 0.46325302446061)
(197.928899268469 171.445129065484 -407.438656737006)
(76.1556093343787 391.487159403891 117.754271843296)
(178.059757241374 510.27818364042 534.759247083104)
(-502.849800786768 635.435552896699 109.351274386293)
(-136.926040003526 252.5215157331 -180.05906166081)
(126.998772506671 578.099077818357 -146.602614137117)
(623.376072157189 154.974692143905 203.001897405675)
(-81.5688689830973 -104.164797477868 -104.053599727405)
(-508.313150806133 -379.389568318324 -101.8294038469)
(140.983334595818 -337.01690011261 253.761467717922)
(-110.354783825938 -139.419719282979 -200.174711305989)
(36.9842876433659 -201.115749622435 592.201616921373)
(-55.2295666003627 173.803930619128 -50.1302116227207)
(-279.477893395206 -55.319308150186 88.9640757215997)
(-336.188993984008 -112.528397503123 -52.2463222995507)
(-39.4640724426482 169.863725337651 -171.179372296764)
(-188.17046500197 -198.477176401131 186.108169040659)
(243.596688947426 217.535815789314 -222.644923909873)
(80.1701853216462 155.470912466933 -208.971757665098)
(18.880841667327 -222.491355742098 -373.744357181301)
(189.300343866602 -2.90832653637874 -12.2563808788127)
(-240.825820673645 -105.942223755249 250.094535599766)
(169.634792991581 -149.014069483129 -263.891523853868)
(256.740281491959 92.1515626408776 55.1317154980661)
(375.351852489158 154.843118877425 414.558607428607)
(138.975692255125 113.880821954135 374.007195520807)
(-225.398495991058 -598.078133535996 52.7785731843219)
(-150.114501838159 334.472712396565 46.9946145928575)
(-103.447719485756 -27.1986352682012 59.5182859892426)
(41.8738134855205 307.197959543878 187.837748823126)
(-181.145017009391 631.782408139493 -443.911659219215)
(-744.722367631648 -293.60189880629 -213.655939221562)
(-216.203869085676 183.309564176096 -156.10338471826)
(-173.96608309363 -183.334724039367 -41.790839838697)
(51.3763658703467 120.075666211275 253.561568308091)
(-91.463790058466 28.825104317119 623.321909378096)
(-29.4382517643887 458.233471786228 65.2355812503273)
(40.7962012692498 5.6232187675783 141.770157202994)
(1.57305859666924 -51.9806447938386 428.251922266915)
(-80.8452912535852 -278.861213412388 -151.398434177054)
(-155.90099711298 -24.6009113787611 -32.12256710327)
(178.734213443209 62.0371434741628 -43.8520993015201)
(68.8873142110807 -230.736358747902 -9.50376808520175)
(211.130247429924 26.2423054980045 -89.11792059348)
(-63.6695046551683 -532.113500072925 34.4684137096637)
(53.4361708206164 -464.144241882562 33.190489858534)
(-244.631459603524 -113.556881814731 -377.38447609987)
(-280.293308888951 -205.710480084839 -117.007152308105)
(438.553580209887 -292.188118033388 -61.056511030712)
(-268.466969789094 177.196072415569 68.8035029800651)
(256.296293989368 494.150754046102 -0.187668115742067)
(-448.295431932191 81.0175856186926 172.849536267762)
(14.1954464372889 25.00612779268 -87.522033805908)
(-287.221690197119 -232.162868325946 157.83476790693)
(370.246013843718 63.8289517696393 -397.281043778277)
(-243.953917842616 596.201927253902 -43.7626263080885)
(-80.4749014931879 12.1508086570291 235.870828312508)
(-330.676717342634 262.735449916523 -166.976865192587)
(435.441931084449 17.9887608154438 10.3767911840579)
(-520.970376743722 120.686290053872 155.937581254867)
(505.962343613691 -227.757452809391 603.774496295826)
(264.554180480422 131.617384370472 7.1336892073126)
(159.058101476992 139.309766901847 326.34950231675)
(-186.002444948433 -262.359973744501 256.565162463916)
(-132.339980767594 -304.180114880824 -131.739896284061)
(363.375845563936 104.975682225153 59.5431156262018)
(359.491338930115 270.028028041817 309.221694569211)
(59.8579203229485 -256.518885050928 61.3534200935018)
(-460.198899978042 -217.77194938933 -297.380989666909)
(-692.960939168279 -291.816481509854 -183.136060622159)
(-225.257443677422 -139.864709513966 622.854481652394)
(364.410374802622 -113.059192748852 -634.796005561433)
(73.0591817516301 -1.01296532790453 -99.2618622241924)
(-217.500225730229 503.045056394072 174.079301317739)
(214.272962210492 -150.671260856342 -117.027987271207)
(-81.4614633149049 2.18154836973318 -109.300023830267)
(306.314136366244 -26.6859743008999 -252.095407922803)
(25.922297316453 -463.456056138396 468.201313818082)
(-437.365279492929 356.327931540736 62.483102457857)
(37.0413899170001 87.0274052035385 260.567548384604)
(-265.340213402886 -361.017320111124 293.942445174815)
(48.9876283163088 431.836396786208 31.0321370168205)
(178.793517546534 -73.4694858865153 -99.0424906237424)
(350.669611325609 -802.990228056212 139.020860956207)
(173.106929213084 -100.911965235042 -222.609701360631)
(-388.642777057697 90.978434273127 -79.3855352664238)
(-87.5260767772601 274.521199724294 533.17546389388)
(-33.4197430778149 -239.099778469069 -202.857267579863)
(-64.826500375585 42.2196212034208 -91.0973337855776)
(349.507740360696 -4.55359345923909 204.173200769861)
(-170.233963951053 -166.207258971199 -190.792681782085)
(349.57472231864 64.3483674684933 -22.9875120709181)
(254.529423976997 -690.696209153921 32.6434245344321)
(292.454335102264 435.236296188085 -219.010743827011)
(313.26659999061 175.222894470377 299.198918848398)
(215.494528121483 181.37819974229 311.761976863921)
(154.927140690281 395.30869267552 -0.224227135008174)
(-86.9011247712724 195.575414689959 -187.758699009554)
(-6.66617140679647 79.2170487403171 -423.962168472717)
(145.491915699561 -366.163562416899 -47.1401628403215)
(-150.125272150165 152.860262872324 -884.124872323816)
(41.7706402988727 -61.2900821874728 37.6925727334241)
(-38.0399753012332 -222.271831441991 -258.834805720852)
(288.359282643683 -220.256439632232 -129.667774689717)
(-303.806676631281 280.035772631622 -11.9975983302848)
(-283.041849757745 274.375059569082 -306.910837297199)
(327.402170879938 493.954250742253 329.891215040957)
(120.663306340396 399.736607418743 -239.283457989836)
(-224.602638270847 160.970428800396 44.5418522023089)
(-119.963357758916 13.1695984436383 -212.211179963258)
(411.584952290649 304.008136674246 -182.580857179294)
(447.006498091062 774.848323010205 356.748774109669)
(-72.4665088369079 43.9605142800627 -451.266791404348)
(-152.466017002863 252.086291255214 180.273648418299)
(108.760019775279 -614.055609681227 445.222298320123)
(-72.8713709838556 -538.181496490258 253.061893218569)
(161.058667514779 47.8610438620324 -5.96090272722787)
(-257.156782422004 152.313880752982 -209.819593291324)
(-460.350569250011 133.79028491405 -136.680282183381)
(-353.863343712295 -499.630125560757 329.652541092866)
(26.5460610397851 -339.757433289287 135.514506210327)
(-698.768145705455 -451.559390397624 -361.815249275333)
(78.2504539667344 -327.086361212409 220.475237762396)
(388.534202104897 192.739918322075 41.0461748115058)
(342.344708662967 38.6361682560508 -242.697166984285)
(-400.69339827914 260.688088379212 104.186033309363)
(-196.708336170403 -163.190211029194 103.013738627001)
(-350.11513401944 198.314369075163 3.49043365660483)
(-408.955039918365 311.657169448296 -71.0287110955041)
(-53.3349713996329 -28.5535461241497 61.9455911470653)
(-237.221168468037 -77.9202254118754 232.273062878264)
(-21.3285619932183 -313.121893280316 324.663615485832)
(-226.890689511179 293.781070407834 104.792490355887)
(-356.317741439627 -312.637315098766 282.445450008354)
(-210.450987765386 282.148868364476 105.746459805425)
(312.419401174905 -320.275604194223 352.59098300471)
(-107.860216300111 -166.032177546592 634.533563985396)
(-25.4399417394177 -131.179500437791 -139.086640228736)
(-117.046851713058 -253.923460510458 121.328804733398)
(176.398848776819 -25.0431375679812 106.914183185623)
(-67.6113675489185 -419.633821473953 -49.1509817696023)
(265.286670779418 -278.503677938752 -36.7034300257804)
(-70.7650204987187 243.85300463338 -410.949396182863)
(-382.435218792033 -818.411053187528 275.380308641212)
(-129.542930082248 -316.954175661303 206.890637941626)
(201.800625060103 451.608029216913 -435.934312509147)
(9.61139379954409 -4.08032493372392 -34.3451249305094)
(-360.652348464481 -256.582484330749 -194.118394872465)
(33.2702444371943 -342.287366143406 644.039140375374)
(-59.2915097417999 -66.1040993820096 11.4877262416015)
(-200.815750747643 -267.735885905758 220.81889882619)
(151.473368012261 662.323273059219 231.330898550767)
(-35.3545655538562 -377.869111336899 -111.115838587256)
(-221.488992660819 -58.8193262521652 -30.6884800756483)
(218.088857843818 -181.715416269738 109.681038993752)
(-33.2090094660587 -72.710433250035 -160.727798500718)
(278.97489911551 -79.9566114312887 138.527023482594)
(485.179010664586 -68.4849805578424 88.846357623655)
(-411.656753619509 -35.1404698921799 115.635964891936)
(-21.0023472813741 278.67484429958 205.558433779422)
(636.27857085522 -117.507034224739 -58.360336642267)
(-550.104908319679 6.60762664879246 -100.130725935348)
(-458.220208535209 -162.789391788766 -529.969404498205)
(278.465244959911 -162.363464799772 98.2525835132869)
(278.562347049528 -305.307655556125 269.549710644069)
(-749.020682274042 229.485406757314 695.91198842789)
(-122.039553699608 245.264374393512 480.837611526814)
(-169.303932556052 238.703867302699 506.383720169201)
(46.5287287532097 39.5624950220964 275.492073436164)
(497.730759264474 -0.324378002220065 -195.889431492312)
(-29.9298928206906 174.67575742324 237.456728575674)
(-101.703008098943 47.0416929085955 65.4304140168553)
(537.449355316815 -558.187873979608 39.9730811503433)
(-100.746297227013 232.143038528914 -160.754130686792)
(-113.359976617221 359.950133091457 329.605104497251)
(291.032862452759 55.5185495793426 509.63951896431)
(276.690680764112 -270.699063670187 93.4756994365386)
(-2.45070087330818 -135.620930435164 168.758426451269)
(-130.844275993098 9.20797453636913 18.3861450020163)
(157.289504193827 -314.488510193487 -158.695166989093)
(9.50441516175426 716.800015871249 263.879628621426)
(-198.455789759201 265.666708738193 -65.2146946800602)
(-548.308957074742 -429.630678064835 -108.098282895311)
(318.29045128893 168.290901881192 305.949881749319)
(89.6282840451959 1139.58819959681 -103.839865032997)
(-20.866908470785 -144.790141408361 -130.783930334163)
(45.8224855170044 366.026927722504 531.364049251826)
(-14.8483719787014 -679.142789564967 163.632307541259)
(255.035103940899 -54.6012847823164 186.194582123928)
(143.78161265125 -91.2991457978749 432.102810569485)
(239.392873236388 -197.889044976666 -80.6964970803311)
(-273.825635525667 -114.598315738256 -320.935273332769)
(-724.096088705129 272.114273731657 342.282545130185)
(-32.8632191535164 -724.662533531571 -147.675090630955)
(-259.323880585899 -473.618404801402 382.075909693485)
(129.81277811176 408.487207425474 112.877586799255)
(42.8021345572637 21.3618811178941 111.643007115737)
(9.75099826914433 133.055790528699 -371.28755968987)
(-114.159870411198 -233.608292330148 434.175290276503)
(422.730919297304 131.973467027643 -48.781800397878)
(56.6995161736362 194.189768076264 764.844993102917)
(-950.984618816843 236.516763337324 -173.720000747875)
(483.761355833952 -167.660474833545 244.8196437526)
(-643.34161228469 -186.236692822962 185.388444271687)
(58.3349111945037 300.669718385702 12.32243918099)
(-407.855267826456 -228.838739652146 179.129232589324)
(-355.605848330377 -189.144538101111 -202.347001420906)
(119.960982406245 296.106713672844 200.891738717057)
(-92.1494621016569 34.1026884052294 -141.789182317774)
(101.964182606968 -6.88947257359473 -358.658724838912)
(-173.673426493709 210.52522009795 -161.486347117297)
(325.719837091946 -300.818316017983 130.16779703987)
(63.4601292778059 -294.87005694424 -16.25018658849)
(172.069023826038 550.611475067289 639.98168344797)
(-65.0578344352477 38.0884051158473 -178.246523431985)
(357.186978605489 267.93189600878 -361.872566178497)
(-53.1019676617662 310.034945926247 -380.903633729226)
(-60.6158381342102 127.677312848037 -85.5275155061437)
(140.848373056766 174.444152708301 -591.22835658765)
(436.82786007031 236.766811762473 92.8579961692797)
(10.0427706061376 -30.6541760886327 -192.185387358412)
(391.430889231989 221.112788883499 857.539423629745)
(149.285649225733 -37.7327825019534 -292.371848073482)
(21.518372444435 -66.6975718570839 362.725938557142)
(-0.612850484116726 -529.388366472306 -155.456674042978)
(345.988928035728 52.4361141784443 -4.75191238846262)
(489.962623012161 220.382116778978 -14.0936365041466)
(135.864181667057 203.410248468804 -148.269750442615)
(50.8339332700311 -340.074060056157 -446.854158722594)
(367.886202521206 -131.801640982954 -598.7285524382)
(-161.788380970197 141.276526525584 171.982725982508)
(237.468606720278 404.758272598284 -332.577871776411)
(313.255963772186 -174.197689310484 379.771437665864)
(-1.30850579207468 -52.9976628746656 274.821987538482)
(-351.623961669998 -163.90317157556 -69.1925378113228)
(202.461195330331 49.577132532619 -3.19562876136623)
(-288.748130671445 104.723553562538 251.284084736626)
(6.80856320121817 -114.137999848679 -190.52157285403)
(-347.681044926349 -82.6614672904362 871.577476080048)
(-682.546328771343 -95.8235951069105 -236.479508916391)
(207.667749070367 -97.3567321198666 389.493239823969)
(-237.208317231214 108.493311709461 236.457967670035)
(277.067844813598 -560.626321249183 152.555602783563)
(-101.664531236393 399.114410149149 -374.172330071271)
(448.924802122198 430.891632931637 182.435414624747)
(-99.6562893483548 -46.5427299570198 -121.579792867527)
(-8.98585057794774 152.692859203306 -136.589117207171)
(617.164629856297 -50.537125132351 96.5730543537507)
(135.432474887887 57.0443189370118 3.83611265569643)
(-241.201534031517 -65.2090530459369 226.631915359504)
(-314.347736586106 -51.5023981457106 -703.097491932778)
(455.882422818949 -118.457186739563 -44.8031980729268)
(-511.491978145885 15.2892486562204 -195.984210322666)
(-255.286030045296 313.464534086969 55.0029802881654)
(-531.360565903248 114.252158924289 969.859803281747)
(230.526410874262 -47.1536373104168 532.502406530063)
(-394.599013120921 91.1550890016403 612.32601815544)
(-151.916221755055 -115.195244804406 48.2928612904284)
(-210.544102752747 229.210896512705 167.272108220483)
(732.10970293106 -194.035164972702 282.305647510004)
(35.8944026938766 -138.361533432782 67.1015792015854)
(-475.14093187961 -26.5688189746293 41.736686269435)
(206.112727653349 220.818505010414 -134.391720004798)
(-541.433438089896 -127.311648452119 -179.01366112429)
(-277.938405990089 254.413399813233 -525.823329377866)
(-159.308791799027 -315.671946767664 189.68176169995)
(489.887826457998 -123.358425333016 -462.05648735478)
(263.850270839477 188.419242812943 310.398620896449)
(-188.94349129378 -96.7585985595846 339.381337052113)
(-124.311566175664 68.3145884457958 -106.657352658869)
(-26.4574608939239 -87.4031648443213 321.776925855129)
(-211.006042153859 263.19377946523 106.004762722298)
(-444.187831054134 282.099813465117 -90.0614134690061)
(-43.0499790160207 -158.281132308297 -115.687969956282)
(233.11420367584 -236.58814386018 -155.410050126286)
(148.535119327202 -43.8325395380298 -28.6979776971029)
(71.6357587548012 -150.32893321645 -83.6956018969659)
(772.589819360449 208.97122499629 22.1309165535196)
(-291.047065968489 -357.999901475635 -208.323818472356)
(-318.840513810348 -41.1926414392493 -68.6395406088948)
(170.823582676286 -455.506201902855 -269.648690632169)
(-94.6785226119579 -368.567397680168 -297.886945043656)
(224.508528346381 -34.5405176581799 -606.500717234141)
(83.2646545396384 203.448097948558 -331.273191471795)
(-117.801885521484 -81.0233682897125 298.626953307336)
(139.041114101914 142.360168982624 107.957259773161)
(558.139253998262 -153.84313248497 -154.256108125029)
(68.6022863375063 -398.320168725343 201.201824772674)
(-219.235028713695 -657.421082406392 153.937923214687)
(-75.8462022854484 104.206487003677 -292.994114909165)
(-119.004430506666 -238.414955960152 -21.9079775248902)
(-5.63292342173621 470.699819778949 -181.166839983249)
(672.627555046546 -21.8927525435291 121.064091574993)
(270.023878896294 -90.5301101743445 59.4940094550417)
(354.088830541995 359.982105517516 733.449271206211)
(44.7581380137761 128.790367667984 -106.010137061268)
(-27.7202472901541 -258.928753016917 102.645250151547)
(62.1428151909343 -322.215435241608 -581.51016457342)
(-41.5508590904916 232.730964398607 514.39474355895)
(-137.00305644273 -86.7553343394706 300.841731634756)
(256.845071299343 106.315602265164 100.135716004942)
(-404.581809261969 236.443450871779 142.750139510897)
(-82.0846479031966 156.115312287535 -269.77802018941)
(-657.799583682518 -46.2790867466084 73.8764442505907)
(1.43896201577146 -142.55823305647 -256.099609874269)
(-292.549907842543 -169.156951262883 281.249350952348)
(-61.410275448741 190.11024697908 -115.594093982395)
(176.498834931794 -363.434193151578 -148.040892909623)
(-38.7981788251475 -483.729299503174 78.2258442343612)
(-104.329550729375 -516.017450521812 -430.236729634427)
(127.757229896154 -199.664735690222 303.351097243802)
(422.32699075184 155.213065926114 352.007499012876)
(167.04760055381 -45.5637269825216 -90.2476240743376)
(-80.5478625315162 -56.4642000925322 206.919050133294)
(-519.633355335195 -287.910278950228 300.283069775273)
(644.32334273074 -324.365736907657 -688.181024018875)
(-524.918075632627 460.150447956766 329.514500371657)
(77.1411840289635 -331.85848196414 -48.63304587356)
(523.494349678078 -647.649962991002 -229.980688309576)
(-84.6189082658463 -308.75133861415 176.844527397188)
(156.44761611069 -417.809949616325 8.95194011325984)
(-362.585509993877 467.613761790613 -177.567726081196)
(56.2696742207415 184.046216185771 -71.1501688106942)
(188.406135643798 168.261718706152 -100.941759787539)
(-265.585892161373 -340.965062361318 142.440856172175)
(-10.2216509154583 60.9975427909399 -127.305930196946)
(66.9760326681193 295.681450111448 125.353459251836)
(497.257045389115 -563.649505363289 282.006033825366)
(-509.481388839844 -215.301389517862 543.868590114138)
(-8.19066223184971 49.0246229063953 324.243902374856)
(207.230197065901 160.389311103666 75.4653024508438)
(-107.684931936279 619.295362121547 19.7352086274512)
(95.0256898525912 145.400000161007 -325.052437741428)
(121.662524919669 75.5893538739502 -27.5818894256841)
(-300.519112920584 213.926868318386 -101.866939926331)
(-125.042649744781 121.920450876505 -318.775602217134)
(96.8290982363223 55.499945969073 -116.505047443469)
(-32.256994248257 722.225276640223 106.891633548347)
(628.879297211086 222.310152178048 -103.298285057474)
(-106.495452687836 67.5851288420139 -40.4223823077922)
(222.428074722534 194.012171027999 -23.8101627594256)
(318.062903983906 669.49427321319 4.28226850444914)
(-537.315137412268 191.398745865486 443.240837662963)
(-191.532446033335 433.466656826906 445.956020893438)
(-492.787171017622 -195.296383232361 249.260789663242)
(1.84732159303208 72.2392989341883 -212.335649272455)
(-112.204146184654 -300.147859172174 313.711053175874)
(-350.642411847218 1.99676627453099 -119.008360248338)
(419.657216777005 166.655887770305 -148.65155426272)
(5.05840145127675 -290.276234717147 25.1673641340945)
(-32.2670954829956 49.260258084433 -28.5442643021886)
(135.786045937514 209.850692543868 -191.727049131715)
(318.326811609443 -198.121542034612 219.339045507805)
(-178.575496448779 -900.157798235764 -69.4155234261437)
(-114.715736755082 -365.753876216829 -365.804416499432)
(-338.206723717614 482.003033485939 -200.439526554914)
(135.825977278255 371.9364121999 -140.335619136504)
(-447.773967350072 -564.226493509276 39.1115180813346)
(95.0991204800289 167.999765311245 157.041393210109)
(154.07860376919 -80.0150309393224 71.238679726527)
(-243.844188592682 195.079425602406 352.438398404152)
(-5.98705458714166 -21.8457543072445 -397.162358821785)
(133.441799817979 74.0195119847444 -110.161240634881)
(-104.993702750957 -207.288018689283 -265.598182261647)
(198.505298728024 -400.87106725492 -213.377632978487)
(-460.150688959848 -530.947166518711 45.127033070599)
(78.047371027036 141.571420796128 201.604978627007)
(212.199482334453 -29.5262823858286 -273.70703477793)
(-508.581208984223 514.344602728708 -269.088416320251)
(-97.1002839131948 435.498349348629 619.445810251222)
(232.245415173384 95.1300477373061 -234.089225159146)
(165.450734044431 -105.389856116392 453.4570384133)
(-71.3569335752656 -161.188607264957 -221.077624318189)
(752.790284583293 1.65724118042442 -451.864905861908)
(-152.87258966438 117.997262037167 184.348159726668)
(235.216430834471 -78.1167150514803 -196.613346356837)
(-502.050498887276 90.2153429866872 -235.85297301429)
(-143.11380649076 11.7604093146085 -166.15461731489)
(754.418998364095 160.385158666654 -293.103586756974)
(-160.81124747476 -186.921339115793 198.091286912629)
(-126.451201785284 363.052940260118 440.691878334396)
(432.812579739881 -135.038028466897 -337.263270123909)
(168.696055222396 -338.60084562081 -159.144225286088)
(-276.727759641312 -440.524482756914 -325.280187318465)
(330.527640338914 -261.625899314976 -60.7005918239523)
(-203.310625390351 409.248425009423 160.055861957236)
(-96.6970905753767 -167.061358861746 -206.20935216164)
(384.401336543784 -89.4363611906345 492.045693680636)
(-33.9303232837957 138.068437025386 -29.0050246699884)
(201.455020331333 -27.1327310196207 6.72739592479808)
(-234.82899203875 360.951608841518 204.979731895891)
(202.938937316676 -235.316632828147 -20.9637770285777)
(351.345192648128 -11.4883741012108 -425.977468367689)
(61.1606126278821 212.932423897092 -71.9636973584732)
(241.215761727947 244.515997710386 114.811124154793)
(-208.195661277448 421.186395862095 -103.217517607717)
(16.7630350327901 173.016257217162 -24.6307742624939)
(354.566155834862 -101.800314946685 718.087985042132)
(-375.36695346972 -105.184119105052 -152.045046707688)
(15.5690740298561 -334.745337711255 -150.051325282143)
(-37.27176712525 -327.905547356938 -593.803773993743)
(-214.421618108416 -65.7850345173954 -129.019375468189)
(94.6097209444976 -253.561465471181 258.256382466042)
(278.580626881066 -357.129872806043 335.872262849746)
(175.203953901552 148.919679208156 8.14887074700775)
(238.69152105722 329.348601425736 103.673493694828)
(-141.467235538401 253.639917596826 158.59062661326)
(-353.022584094089 734.923016923371 -187.831119962234)
(479.406216747381 -486.657867408076 195.807466526807)
(17.6300222939288 -8.10470187790854 67.5691063226873)
(102.670855089445 -32.7147722405562 72.3113935365061)
(-22.8618370606339 -54.8685431340717 139.179266326)
(-104.866887019764 369.176687793235 -307.818885827305)
(-60.6511879387791 -220.450006488053 -465.759161626587)
(-47.9943235626293 -419.437056301514 234.848953373757)
(-109.191841909058 270.739580953019 50.6942996275989)
(490.730362070219 -393.865278205579 -280.955723864919)
(125.192039058365 -49.042582533964 131.142588374554)
(-109.573360351987 -424.811928591623 297.533338796045)
(64.3219603712375 -229.583065352366 -764.822407836414)
(-180.483511542405 -832.508709429599 419.338463478746)
(131.135156725853 -274.755243690615 187.662291000536)
(-178.475564359012 -148.031327182144 -154.633505123731)
(311.33734775496 293.310624398645 -22.8250290875716)
(394.32237977295 -2.6153308800021 383.503456846553)
(305.521788645757 72.328447417877 -42.3009366647718)
(288.760238325125 -376.581237919075 65.118148416681)
(264.631772875555 -74.4825081917383 -278.0340749021)
(-504.88673005152 -422.620207767705 461.834861915902)
(-69.5368610404866 -29.7885291347833 -202.043183161962)
(10.8184119850679 -96.8437413447488 -69.7789076796214)
(77.8275059457589 85.2183649442161 212.462085886048)
(-98.2866605618332 -328.070018670693 -823.128634321063)
(-42.2300772464812 288.357929860454 -331.874730680102)
(-107.411382943307 177.761702196844 43.504957511257)
(381.893225529144 479.402255580319 -4.76546679629502)
(-291.917977038908 9.06151725477264 -434.23118106352)
(533.251363546747 85.166490029709 95.6703052508396)
(631.55473187947 172.405588035931 -21.6953780662922)
(102.280478077827 269.334747902847 -171.993147253705)
(158.237735151989 200.96422238037 -193.725950261725)
(255.433810978453 -237.696279910739 -207.696112697391)
(-122.644259297874 -239.72629781453 -36.0306950903629)
(-136.538735518647 -643.266974944852 90.7210778186153)