/*--------------------------------*- C++ -*----------------------------------*\
  =========                 |
  \\      /  F ield         | OpenFOAM: The Open Source CFD Toolbox
   \\    /   O peration     | Website:  https://openfoam.org
    \\  /    A nd           | Version:  7
     \\/     M anipulation  |
\*---------------------------------------------------------------------------*/
FoamFile
{
    version     2.0;
    format      ascii;
    class       dictionary;
    object      codeDict;
} 

HPCFluidP
{
  code
  #{    
        Info<< nl << "FLUID PRESSURE BC";
    const fvMesh& fluidMesh = db().parent().lookupObject<fvMesh>("fluid");
    const fvMesh& partMesh = db().parent().lookupObject<fvMesh>("particle");

    const volScalarField& pFluid = db().lookupObject<volScalarField>("p");     
    label fluidBoundPatchId=fluidMesh.boundaryMesh().findPatchID("fluidBound");
    const scalar pFluidBoundaryOld
    (
        pFluid.oldTime().boundaryField()[fluidBoundPatchId][0]
    );

    const volVectorField& momentum = partMesh.lookupObject<volVectorField>("momentum");
    const volScalarField& rhoN = partMesh.lookupObject<volScalarField>("rhoN");
    const volScalarField& rhoM = partMesh.lookupObject<volScalarField>("rhoM");
    const volScalarField& linearKE = partMesh.lookupObject<volScalarField>("linearKE");
    const volScalarField& internalE = partMesh.lookupObject<volScalarField>("internalE");
    const volScalarField& iDof = partMesh.lookupObject<volScalarField>("iDof");
    
  volVectorField U
    (
        IOobject
        (
            "UPart",
            partMesh.time().timeName(),
            partMesh,
            IOobject::NO_READ
        ),
        momentum/rhoM
    );

  volScalarField overallT
    (
        IOobject
        (
            "overallT",
            partMesh.time().timeName(),
            partMesh,
            IOobject::NO_READ
        ),
        2.0/(physicoChemical::k.value()*(3.0*rhoN + iDof))
      *(linearKE - 0.5*rhoM*(U & U) + internalE)
    );

  volScalarField translationalT
    (
        IOobject
        (
            "TTranslationalPart",
            partMesh.time().timeName(),
            partMesh,
            IOobject::NO_READ
        ),
        2.0/(3.0*physicoChemical::k.value()*rhoN)*(linearKE - 0.5*rhoM*(U & U))
    );

    volScalarField pParticle
    (
        IOobject
        (
            "pParticle",
            partMesh.time().timeName(),
            partMesh,
            IOobject::NO_READ
        ),
        physicoChemical::k.value()*rhoN*translationalT 
    );
    
    const label fluidIdx=fluidMesh.nCells()-1;
    const label particleIdx=0;
    const scalar w=0.4; 
    
    Info<< nl << "Particle pressure: " << pParticle[particleIdx];
    Info<< nl << "Fluid pressure: " << pFluid[fluidIdx] << endl;


    operator==((1-w)*pFluidBoundaryOld+w*(0.5*pFluid[fluidIdx]+0.5*pParticle[particleIdx])); 

  #};
  
codeInclude
#{
  #include "constants.H"
  using namespace Foam::constant;
#};
}
   

HPCFluidT
{
  code
  #{    
    const fvMesh& fluidMesh = db().parent().lookupObject<fvMesh>("fluid");
    const fvMesh& partMesh = db().parent().lookupObject<fvMesh>("particle");

    const volScalarField& TFluid = db().lookupObject<volScalarField>("T");     
    label fluidBoundPatchId=fluidMesh.boundaryMesh().findPatchID("fluidBound");
    const scalar TFluidBoundaryOld
    (
        TFluid.oldTime().boundaryField()[fluidBoundPatchId][0]
    );

    const volVectorField& momentum = partMesh.lookupObject<volVectorField>("momentum");
    const volScalarField& rhoN = partMesh.lookupObject<volScalarField>("rhoN");
    const volScalarField& rhoM = partMesh.lookupObject<volScalarField>("rhoM");
    const volScalarField& linearKE = partMesh.lookupObject<volScalarField>("linearKE");
    const volScalarField& internalE = partMesh.lookupObject<volScalarField>("internalE");
    const volScalarField& iDof = partMesh.lookupObject<volScalarField>("iDof");

    volVectorField U
            (
                IOobject
                (
                    "U",
                    partMesh.time().timeName(),
                    partMesh,
                    IOobject::NO_READ
                ),
                momentum/rhoM
            );
            
volScalarField translationalT
    (
        IOobject
        (
            "TTranslationalPart",
            partMesh.time().timeName(),
            partMesh,
            IOobject::NO_READ
        ),
        2.0/(3.0*physicoChemical::k.value()*rhoN)*(linearKE - 0.5*rhoM*(U & U))
    );

    volScalarField overallT
            (
                IOobject
                (
                    "overallT",
                    partMesh.time().timeName(),
                    partMesh,
                    IOobject::NO_READ
                ),
                2.0/(physicoChemical::k.value()*(3.0*rhoN + iDof))
              *(linearKE - 0.5*rhoM*(U & U) + internalE)
            );


    const label fluidIdx=fluidMesh.nCells()-1;
    const label particleIdx=0;
    const scalar w=0.4; 
    
    operator==((1-w)*TFluidBoundaryOld+w*(0.5*TFluid[fluidIdx]+0.5*translationalT[particleIdx])); 
  #};

    codeInclude
  #{
    #include "constants.H"
    using namespace Foam::constant;
  #};
}

HPCFluidU
{
  code
  #{    
    
    const fvMesh& fluidMesh = db().parent().lookupObject<fvMesh>("fluid");
    const fvMesh& partMesh = db().parent().lookupObject<fvMesh>("particle"); 
    const volVectorField& fluidU = fluidMesh.lookupObject<volVectorField>("U"); 
    label fluidBoundPatchId=fluidMesh.boundaryMesh().findPatchID("fluidBound");
    const vector UFluidBoundaryOld
    (
        fluidU.oldTime().boundaryField()[fluidBoundPatchId][0]
    );

    const volVectorField& partMomentum = partMesh.lookupObject<volVectorField>("momentum");
    const volScalarField& partRhoM = partMesh.lookupObject<volScalarField>("rhoM");
    
    volVectorField partU
            (
                IOobject
                (
                    "uPart",
                    partMesh.time().timeName(),
                    partMesh,
                    IOobject::NO_READ
                ),
              partMomentum/partRhoM
            );
    

    const label fluidIdx=fluidMesh.nCells()-1;
    const label particleIdx=0;
    const scalar w=0.4; 
    const vector partUCell=partU[particleIdx];
    const vector partUX(partUCell.component(vector::X),0,0);

    operator==((1-w)*UFluidBoundaryOld+w*(0.5*fluidU[fluidIdx]+0.5*partU[particleIdx])); 

  #};
}
