/*--------------------------------*- C++ -*----------------------------------*\
  =========                 |
  \\      /  F ield         | OpenFOAM: The Open Source CFD Toolbox
   \\    /   O peration     | Website:  https://openfoam.org
    \\  /    A nd           | Version:  7
     \\/     M anipulation  |
\*---------------------------------------------------------------------------*/
FoamFile
{
    version     2.0;
    format      ascii;
    class       dictionary;
    location    "system";
    object      setFieldsDict;
}
// * * * * * * * * * * * * * * * * * * * * * * * * * * * * * * * * * * * * * //


defaultFieldValues
(
    volVectorFieldValue U (19.5975 0 0)
    volScalarFieldValue T 0.258845
    volScalarFieldValue p 0.460894
);

regions
(
    boxToCell
    {
        box (0.4 -1 -1) (0.6 1 1);
            fieldValues
            (
                volVectorFieldValue U (-6.19633 0 0)
                volScalarFieldValue T 2.5917176e-2
                volScalarFieldValue p 0.046095
            );
    }
);


/*regions
(
    zoneToCell
    {
        name "fluid";
            fieldValues
            (
                volVectorFieldValue U (-6.19633 0 0)
                volScalarFieldValue T 2.5917176e-2
                volScalarFieldValue p 0.046095
            );
    }
);*/