/*--------------------------------*- C++ -*----------------------------------*\
  =========                 |
  \\      /  F ield         | OpenFOAM: The Open Source CFD Toolbox
   \\    /   O peration     | Website:  https://openfoam.org
    \\  /    A nd           | Version:  7
     \\/     M anipulation  |
\*---------------------------------------------------------------------------*/
FoamFile
{
    version     2.0;
    format      ascii;
    class       scalarField;
    location    "0/particle/lagrangian/dsmc";
    object      Ei;
}
// * * * * * * * * * * * * * * * * * * * * * * * * * * * * * * * * * * * * * //


7342
(
1.24367067875726e-21
6.27452021518111e-22
2.31593648207651e-20
5.39477051166553e-21
4.24732524810143e-20
1.99917608535511e-20
1.75189516195524e-21
9.5007373599842e-21
4.69991902271986e-21
1.07192364304351e-20
1.48720985748923e-21
1.5754865901624e-20
4.69325194367545e-21
1.23508377016505e-20
2.29689836520153e-20
3.02617837574065e-20
1.46831500729921e-20
3.64734491150152e-20
6.96242520790685e-21
2.89000471205182e-20
6.18625013598826e-21
7.39614947256399e-21
2.93755218580279e-21
6.75919877653108e-21
7.25774359240486e-21
6.9390119100398e-21
2.46017055468606e-20
2.66832816182368e-20
2.45298466804485e-20
1.10433929730121e-20
5.7737949742576e-22
8.81265753818552e-23
1.1333188332334e-20
2.3820345958371e-20
5.86511785575414e-21
9.13211593047635e-21
4.69404354113361e-22
3.22662974383211e-20
1.22059119085248e-20
6.85065487307619e-21
3.19118049441822e-20
8.944384295299e-21
8.13777575826358e-21
2.30865778942661e-20
6.04359240590801e-21
1.10959669322644e-20
1.53930048629132e-20
1.80802147532347e-21
1.12943432090951e-21
3.60107015305908e-20
8.1879014155502e-21
1.49442559753593e-20
8.37471490255854e-21
2.42734335562748e-21
1.77169958884838e-20
1.77671266630671e-21
8.96422166674484e-23
2.37724037867863e-21
3.96141915171969e-20
7.69941933802115e-22
4.16041283376622e-21
1.7841013227855e-20
1.13016212975168e-20
5.7311241136139e-21
9.17877535291235e-21
8.33449203815511e-21
9.98305864876753e-21
4.23421982512245e-21
2.90707129107253e-20
1.00525691105613e-20
2.49670821648217e-21
3.85754309809127e-21
1.39620891989772e-20
1.98663784950715e-20
4.06730255054585e-21
1.65304119791692e-20
5.10461107757299e-21
1.85001212029554e-20
2.11939031689128e-20
1.51222037522192e-20
3.81206562597527e-20
1.75706986965667e-21
1.64652206836618e-20
7.17493649426734e-21
3.67469563860282e-21
3.75361950915144e-21
7.63560150487151e-21
2.42578927905996e-20
9.47940099919881e-21
2.44753414735058e-20
2.6981532916424e-20
1.35511178381031e-20
4.94836076009137e-20
2.35334309274905e-21
3.29010388286826e-20
1.16170402587901e-21
4.49349040614468e-21
1.98299448178841e-20
2.40237969091162e-20
2.05033544117725e-20
8.96523553508105e-21
6.42976284583041e-21
1.84517111372397e-20
1.27955155805843e-20
4.23546534806804e-21
5.48283905411448e-20
5.90189919658e-20
1.31275143608295e-22
1.07995046943436e-20
7.49665233740225e-21
2.47684855625795e-20
1.87762235483184e-21
2.39076814962279e-20
3.0420227911766e-21
2.43189472527573e-20
7.40409254110716e-21
4.37339950383875e-21
2.83578645814073e-21
1.27609396964433e-21
5.67481736105857e-21
3.58577829599359e-20
2.61584998272691e-20
2.35680385041763e-21
6.2031467546321e-21
1.3303564810822e-21
1.1824352114412e-20
2.41884694157749e-20
1.80959716074723e-20
2.43508720701289e-20
3.08438713208616e-21
4.05627322822565e-20
3.36178890647343e-21
4.36933160321377e-22
1.52468540721746e-20
9.81972800060151e-22
2.5314481670968e-21
1.77141955832602e-21
4.34951537190605e-21
5.26987248659779e-21
2.66097581066225e-21
5.35348291750842e-22
3.29568937763479e-21
2.09908478810277e-21
3.80902629479094e-21
3.27128123161509e-20
1.03069027208604e-20
3.59331413209037e-21
9.70241833499544e-21
1.49322068655705e-20
2.96311053976398e-20
2.98440591299969e-20
8.87096345711837e-21
1.81115657815191e-20
8.40888970034012e-21
3.09677098220291e-21
2.34831396181585e-20
1.90476587990779e-21
3.99920084172311e-22
4.49261131694675e-21
2.32645746122933e-21
3.0345634646043e-21
6.63212351800531e-20
1.1654795007265e-20
7.90528060347706e-21
2.03700379947077e-20
2.78635725514685e-21
1.52281967197623e-21
6.9473940580682e-20
4.53866073426212e-21
5.03482201057102e-21
1.29487862786383e-21
3.70949335593796e-21
8.28600489108339e-21
1.66416167143944e-20
3.60928759886437e-21
7.74138232404631e-21
2.75041175570243e-21
4.17100232739744e-20
5.28361483955166e-21
7.44469209657368e-21
8.69069117104345e-21
3.03745932072389e-21
5.0112016773401e-21
5.73409083679279e-21
1.46082860836162e-20
6.76573196146828e-21
6.51823322038574e-21
1.24378146455163e-20
1.47036274169084e-20
1.04582342047919e-20
1.87533134933236e-20
3.74165337808982e-20
1.01057655430858e-21
8.15795338196643e-21
1.05145568125585e-20
9.98464759115857e-21
8.71256271426534e-21
7.48367298167754e-20
5.4801792425444e-20
3.57415891025782e-21
8.1586600220065e-22
8.0618819479259e-22
4.04613271269924e-20
4.66239147205444e-21
6.63575995994353e-22
8.16047191483508e-21
3.91664154693564e-20
1.94213253054985e-21
2.50651293717928e-20
3.4391194925663e-21
1.10241268563902e-20
2.03765784885323e-21
9.23232174137791e-21
4.90097235188568e-21
1.60046410299252e-20
1.17321413503477e-20
8.53201233959747e-21
7.30593887363143e-21
8.92591663462347e-21
2.34774467747706e-20
1.05679211158887e-20
3.37943994409456e-21
1.69265250855974e-20
1.18766403284174e-20
7.33848675237609e-21
3.94981208406473e-21
1.06469212254157e-20
2.33601495002742e-21
6.75016556170837e-22
2.193283127543e-20
2.60732621521001e-21
3.50389969675683e-21
3.13298595414027e-20
1.18056864417777e-20
2.79017412804483e-20
3.53747570538448e-21
1.43818255995641e-20
7.34030085510098e-21
3.20079679764698e-21
2.52441714586904e-20
2.68820414761561e-20
1.75368478978595e-20
4.3724962168201e-20
1.81885373405657e-20
1.81272904684589e-20
3.56953742003744e-20
7.09575913521701e-22
4.60240712118096e-21
2.09577325674586e-22
1.43743644625697e-20
3.97487256618813e-22
1.33025896074073e-22
1.74416612518014e-21
5.84214337809498e-21
8.11736739962724e-21
7.50626142934648e-21
2.43271116604858e-21
8.33102724700135e-21
1.59538207314353e-20
2.68532562295157e-22
2.24763589035192e-20
6.01876373283178e-21
3.90442381227079e-21
2.71876315986883e-20
3.28032478410019e-21
3.79472289394135e-21
1.41224948990326e-20
2.00942172567603e-20
5.22371338732496e-22
2.97440779917682e-20
8.22678326038164e-21
1.58181363917626e-20
5.51368328334642e-21
1.17683594154092e-20
5.59985667936688e-21
5.06199520990513e-21
1.37558404573755e-21
2.39933564183043e-21
1.21854706557122e-20
1.89910038114888e-20
1.49185976806211e-20
1.6577159740747e-22
1.04850605820386e-20
3.32065832586413e-20
1.77037665656267e-20
2.91176463823367e-20
6.46586528731222e-21
3.46264878612262e-20
1.32305480934642e-20
3.12467374122595e-20
9.03290828776703e-21
1.81200529396547e-20
2.48710869301089e-21
7.78186667036667e-21
2.06346102603106e-20
2.71462188783255e-20
1.90078055075979e-20
3.62939634333666e-20
2.37870990467795e-20
1.9093268305383e-20
4.70735462491277e-21
7.41904915931887e-21
1.07986234782343e-20
2.57602130572398e-20
3.55897629126655e-20
9.74862128643376e-21
1.32402971647671e-20
5.09260930824958e-21
4.34625105769159e-20
1.44841255978183e-20
2.01231033270022e-20
1.27433810479094e-20
8.11114979708231e-21
5.32455408954625e-21
1.63942708177693e-21
5.06962424626339e-21
5.67707675894291e-21
2.71183890324154e-20
2.28702825302494e-22
1.7886777153234e-21
8.24101708120155e-20
1.94402143322329e-20
7.81224768256823e-21
1.8205156408223e-22
5.61618542185219e-21
2.60840364985593e-21
2.46046744745801e-21
1.16741069534828e-20
1.05712248312677e-20
9.77160679633846e-21
3.27355944271896e-21
1.72711741922995e-20
4.7075498067355e-20
2.15230075271083e-21
4.89774245899971e-21
1.68330061731141e-20
5.22471082009267e-21
1.03069917681138e-21
3.86029778279552e-22
1.50236946616453e-20
3.29844007167223e-21
3.02151501110339e-20
1.68661594342478e-20
9.91754087075028e-21
1.9473136696242e-21
1.09794231421614e-20
6.15367565931724e-21
1.86113843066553e-21
3.90054085949827e-21
1.1433136915918e-21
7.7991739231742e-21
1.30538756927277e-20
9.41408898318519e-22
1.14968822324039e-20
1.69454721258898e-21
2.54718540189016e-20
1.68441417918402e-20
2.28159238787439e-20
5.26182165090115e-21
2.44542636244164e-20
5.40704044976922e-21
9.26343341619709e-21
4.88939487021664e-21
5.14929208575664e-21
1.24728084813412e-21
2.61177678846719e-20
2.90040293168338e-21
5.56831972598143e-21
2.16027308299427e-20
9.72191180164026e-21
6.86423761587343e-20
3.40825683870528e-21
2.62856721815835e-22
2.79544961358894e-21
7.31474507822027e-21
1.46451703872423e-20
8.37489561648225e-21
1.39041426453125e-20
3.68557957940434e-21
1.06541633887904e-20
1.24792282356718e-21
2.46202042511341e-21
8.63128067949001e-21
7.52519892178461e-21
4.05355667818209e-22
1.58966705347265e-20
3.08978235212361e-21
3.68696163479448e-20
4.68010818532965e-22
2.07965353024346e-21
5.75258360347476e-21
1.0392911443292e-20
1.68619507765003e-20
2.47263252346202e-20
8.52697336138633e-21
8.65132270503e-22
4.51169138656018e-20
9.26818576205039e-21
2.04317292599128e-20
4.95008517989585e-20
5.51946161469515e-21
1.12338869636009e-20
3.52855346058495e-20
8.20185627979794e-22
1.18567983962549e-20
9.77009476369132e-22
1.12382363121546e-20
3.27889266416867e-22
2.3315727406416e-21
2.77827496598798e-21
4.33210494293637e-21
1.7459569569503e-20
1.99776317914208e-20
1.9273230716422e-20
2.94290550431652e-21
2.17423212661046e-21
3.89748843400917e-21
1.05552010191957e-20
3.10848000422602e-21
6.38152888954208e-21
6.70359446798893e-21
7.61333011094903e-21
1.93881277913904e-20
5.97702715700314e-21
3.68505820879047e-21
6.68799754071165e-21
1.07717155010667e-20
9.07281500344128e-21
7.59917575372686e-21
7.73140635633488e-22
8.38805702558615e-21
8.96743562098127e-21
4.41962163732225e-21
3.2850568125059e-21
2.04102497564498e-20
1.56035649586452e-20
8.9428964865486e-21
2.1565566338823e-21
2.00276183710382e-21
1.30090170609775e-20
4.40691867165648e-21
2.64312729988632e-21
4.15265102019256e-21
7.5644832486433e-21
5.47928492654746e-21
3.60258610016376e-21
5.1391900887298e-21
1.79479843710341e-21
3.86725980592291e-21
4.39471188953128e-21
1.03930120855484e-20
3.38691455662339e-20
4.74599777559215e-22
1.54799660402456e-21
7.50466859097582e-21
2.32608075004557e-20
6.21004931677428e-22
6.01311666725949e-21
4.37451013905471e-21
2.34950115957685e-21
1.9508007910917e-20
2.48741638757572e-20
6.82189786670861e-21
1.3408285853019e-21
1.37207488920676e-20
7.38986937284179e-21
9.03715149575748e-21
5.02099894440598e-21
3.05992330612647e-21
3.01302303533592e-20
1.35006536280857e-20
1.26450904045821e-20
2.82832033923314e-21
1.80902081910719e-21
4.75635706944865e-22
7.71839120267894e-21
5.9058086884805e-23
2.38655001971389e-20
2.53081212010598e-20
3.29003102449974e-21
3.50671009597293e-21
2.20722775059758e-20
2.68738107991665e-20
9.49155060782624e-21
1.50110627145164e-21
3.49896534500094e-20
1.61961338110721e-20
7.02883546702283e-21
1.91991347650179e-21
6.19302857516887e-21
4.34245095378476e-20
2.25450086466381e-21
9.44324735863688e-21
5.16046924916607e-20
8.79149055241826e-22
1.64193034008279e-20
3.60244410919883e-20
3.73567462464713e-21
4.7888723971151e-21
1.61140194425026e-20
7.12429133478234e-21
7.49804618579736e-21
8.47095876065449e-21
8.15518282123204e-21
9.54628215722311e-21
2.42975129043824e-20
5.55312261540152e-21
2.19860770778308e-20
4.63679520110563e-21
3.45076799421849e-21
7.77511409207436e-21
3.03968988219397e-21
5.50553812103372e-23
8.0449061119999e-21
3.12780227201719e-21
8.11403464388843e-21
2.10189481567625e-21
5.36408958973075e-21
1.08758682818583e-20
1.90720785124861e-20
1.93119695137665e-20
2.58099823678272e-21
1.76019683766393e-20
1.66804608945139e-20
6.44169918390013e-20
2.65539677136558e-20
1.28966806534797e-22
2.26283445832402e-20
8.64901197391654e-21
1.42706521151192e-20
4.04439553040001e-21
2.62766866266615e-20
1.70836869488023e-21
1.26261826474403e-20
8.79581409456363e-21
6.03927721618585e-21
5.44986411834503e-21
8.33407509857414e-22
2.74713191995017e-21
2.60488371591172e-20
2.1246810559598e-20
1.86849549733411e-20
2.73033437453292e-21
2.74579732949403e-21
1.57659509248707e-20
5.05516012745695e-21
2.72525854126381e-20
1.44635386272356e-20
3.27271947045925e-21
5.55231796022142e-21
2.76930989354698e-20
6.77455725981263e-21
9.57031137756896e-21
1.8067268695743e-20
1.09935506518404e-20
2.13543191414941e-20
3.18200873746254e-21
2.38988463212158e-21
1.78950746749198e-20
5.79591957913292e-21
3.48575464041973e-20
2.45611281790771e-21
1.45913082142054e-20
1.95198712033101e-20
4.14007142645699e-20
3.05565134730034e-20
3.22442222069114e-21
3.59827331947278e-20
1.54484989328387e-20
1.53076818844539e-20
3.95976871207158e-21
1.36499911873058e-21
1.2994737142581e-20
1.84631174226461e-21
9.13983318778685e-21
9.98213174647436e-21
2.05796078776077e-20
1.64510730857256e-20
9.76877199608316e-21
1.1972735303883e-20
3.00904602820944e-21
2.13276061549116e-21
3.95458606638087e-21
5.76079058385032e-21
2.1902514959288e-22
1.39409041173462e-20
6.28401718570081e-21
1.30667694522852e-20
9.57106767320854e-21
6.73515114703852e-21
6.71581655540462e-21
2.37561997726752e-20
1.00425523977804e-21
2.46705938849076e-20
8.3308570572572e-21
4.98489597048849e-21
2.24602372267999e-20
8.2120009772974e-21
1.91826678405344e-21
2.64048216683936e-21
9.17561227053806e-21
1.54367681789972e-20
5.43617750520762e-22
1.18211079028974e-20
2.14398232320301e-21
3.21153914636616e-20
4.15407021608156e-21
5.65924349654241e-21
1.70188302365108e-20
2.14403303638991e-20
1.42673833870868e-20
6.54377261836786e-21
1.91370695610751e-21
4.29860263517928e-20
6.14618987754589e-21
2.02252121452811e-20
6.7468086904017e-22
3.57949997717673e-21
3.53423202757679e-21
1.36252074405993e-21
1.62243175193749e-20
4.57060432084346e-21
1.29984068966342e-20
1.19172593033293e-20
5.51716806364218e-21
1.61869760768091e-20
2.24503576048977e-20
2.32184586986174e-22
2.66238678809962e-21
3.53133489498444e-21
5.75889511650445e-21
4.03485984006206e-21
3.96248495443486e-21
6.17578504094642e-21
8.53684701767474e-21
1.43281557505644e-20
1.31051056257966e-22
2.54986650122666e-20
3.33331532011935e-20
1.45904222547655e-20
1.79837106735968e-20
1.19232091435085e-20
6.46213639415923e-21
4.87021400397672e-20
7.47277223291685e-21
1.82117498879932e-21
1.32710309858354e-20
2.19858378742922e-20
1.63428032511465e-20
2.57323806065586e-22
1.10358451629116e-20
1.09070525499419e-20
6.20715915564621e-21
3.41896318878823e-21
4.09422569306957e-20
2.643605596399e-21
1.51991263941942e-21
4.60867159226934e-20
2.46299270439483e-21
3.78952853579053e-22
1.14500547763957e-20
2.23371592363152e-20
4.34772268141683e-20
5.15973147970912e-21
2.00944970273707e-20
2.44530355282781e-21
2.50969162600777e-20
1.00657743910265e-20
1.12792265799017e-20
1.17137661727161e-20
2.50216705955421e-20
2.48449063897496e-21
1.43252287446314e-20
1.88940610774215e-21
1.67370376704049e-21
8.15799189390762e-21
1.14525188724472e-20
2.93680058799734e-20
1.37274341980137e-20
5.11766154049985e-22
4.17516364004645e-21
1.0409311897902e-21
2.3856654034442e-22
1.8494657052564e-20
1.62260207494174e-21
1.21792409710853e-20
1.42841981903588e-20
5.74182686511505e-21
2.43602179732145e-21
3.42823710661466e-22
6.63304908409808e-21
2.51071783288042e-21
4.40255150049091e-22
1.1001691578002e-20
8.12721640458949e-22
5.55617593748486e-21
3.1896393534688e-21
5.10414535365791e-21
1.60521008496616e-20
2.21400564884305e-21
7.64252262475935e-21
2.07290881649536e-20
2.56716809702102e-21
1.65359852444328e-20
3.67108005448805e-20
5.81791897384485e-22
2.93355265318192e-21
5.05216089499228e-21
2.02642218545551e-20
2.02752861816226e-20
1.25321027454861e-20
9.94826470713653e-21
1.67151593608975e-21
2.07670652834212e-20
2.18655289413079e-20
6.11858535093204e-20
1.24987498850927e-20
1.0556300207946e-20
9.78405693727611e-21
2.18931642667634e-21
4.61562095430461e-22
7.72289726702991e-22
2.68416969969795e-20
6.89432397908258e-21
2.76321992362822e-20
1.29787009996495e-20
1.38285693003747e-20
1.1005119128073e-20
1.10211627282338e-20
1.82177905149409e-21
1.1365971570485e-20
1.43683475932865e-21
8.76602836583788e-21
1.71155275461012e-22
6.7717564843284e-21
5.53955554714813e-20
8.9105564734512e-21
4.39921296948413e-21
1.83352105468576e-20
2.48141805904468e-21
3.31267921489224e-20
4.62566281881206e-21
4.98478002768393e-21
9.86866956329808e-21
9.98256535437877e-21
1.82478504611566e-20
3.47847269875201e-21
3.03749189266362e-20
1.30374896494546e-21
3.45299615857548e-22
8.80720242802719e-21
2.43098560759065e-21
1.75912888052752e-22
6.25767031600652e-21
3.00751090930116e-21
2.39493619563221e-21
4.77422216799351e-21
6.47893221584206e-21
2.70101062940911e-20
5.8617396741689e-23
2.13155424238272e-20
2.91169079455144e-20
4.38101494697545e-20
1.58846690446081e-20
9.54163257470255e-21
2.42169316915707e-20
4.88918265025598e-21
1.26389676470484e-20
6.27218987736955e-22
6.9105457826076e-21
4.10253259896119e-20
3.89782713218442e-21
9.35131600804001e-21
6.09531970990986e-21
1.1894042204111e-20
6.93652055753463e-21
7.56609727181845e-22
1.00995544052769e-20
5.06408588849353e-20
1.25245096556768e-20
4.7338673712004e-22
5.48835390979562e-21
3.3893242306382e-21
1.02043111381696e-20
1.50886323860734e-20
2.23360549452858e-20
1.19020586107127e-21
3.4053288101289e-21
2.24597463178892e-20
6.92624561163101e-21
2.01235606082419e-20
9.70948655361908e-21
6.35548283288917e-20
1.21533212645558e-20
2.56959086100041e-21
1.17458467413914e-21
8.01806637434149e-21
1.4806898868874e-20
6.32720675595026e-20
1.1753243058402e-21
1.24524719808372e-21
3.97672745530396e-20
1.21284184267102e-20
4.84217881397914e-21
6.37964355784548e-22
2.50480775947538e-21
6.71945657315896e-21
7.63214918615952e-21
2.60221202500667e-21
5.37079806356695e-21
8.11441381836701e-21
7.42955672295522e-21
8.36381816359461e-21
7.15097934727102e-21
3.14155996364461e-20
4.22992725907011e-21
6.10253866963774e-21
1.16326580536838e-20
5.73384281558754e-21
2.13770955254807e-20
1.93718231490662e-21
3.71048663861833e-21
2.98284060272051e-21
8.50816214032596e-21
2.23108345054755e-20
6.92458517124147e-21
3.53713373906299e-20
1.5503229457288e-20
5.36012650863629e-21
7.48327058379279e-22
7.93800698705676e-21
4.13625170757298e-20
2.19048518723396e-21
1.53766354017887e-20
5.32663210094081e-21
6.69515033786456e-21
8.72197690485898e-21
7.2899848377846e-22
3.84299058872465e-20
1.67202972731592e-20
2.55967748906546e-21
5.96042858062154e-21
2.19497317850963e-20
5.97157826199688e-21
1.41859131546201e-21
3.88356822265655e-20
2.08655932171155e-21
5.95319514137506e-21
3.68611000643865e-20
1.80416500108244e-20
1.59153886461723e-20
1.66909272977957e-22
4.23496207632124e-21
1.93201712973991e-20
5.14308771922428e-21
8.1129314605979e-21
1.17430042054414e-20
1.62416379295121e-20
2.23704932506538e-20
2.92889665057946e-20
2.38220291935728e-21
1.50960457333039e-20
1.94172792884797e-21
5.51864768799968e-21
4.01265937862959e-20
1.62697860328558e-21
1.61883032312766e-20
1.41979060910163e-20
1.33077098000593e-21
8.03983437362538e-21
2.92724272918669e-21
9.13114108162041e-22
1.73665958668323e-20
3.3502202303877e-21
9.43484047587005e-21
1.42532678854219e-20
2.97261914812258e-20
1.72969322829204e-20
7.01788325367436e-21
1.27803438804702e-21
4.20520025470272e-21
3.93806305580641e-20
7.05990954760292e-20
1.82169222765046e-21
1.49259216125612e-20
1.81529918996914e-20
1.59258612423817e-20
1.23371635753265e-20
2.54686537805921e-21
1.94045699098202e-21
1.18488867116539e-20
4.315576741899e-22
2.23163598621721e-20
2.14766746467183e-22
2.8908639401524e-21
9.85417895783071e-21
4.41818991943564e-21
4.27485368206088e-21
1.4574247440307e-20
2.54433064962349e-20
4.86622010428631e-21
2.4372572668565e-20
2.36261800276035e-21
4.55884994743735e-21
4.53014110558043e-21
3.84079304310265e-20
7.56274171469836e-22
2.52111049944029e-20
1.52489340622082e-20
3.62442093675092e-20
2.67128921221802e-21
1.95387386776208e-21
1.40103831067066e-20
3.81430945746104e-20
1.46038179683451e-21
1.41416569283062e-22
1.52799930832766e-20
3.18553789450083e-21
3.34274730966556e-20
3.15209634844721e-20
3.90849093782264e-20
8.00397756294185e-22
7.11690204125038e-21
1.24059912097635e-20
7.4370150819612e-21
8.76068760104832e-21
1.2802445513483e-20
8.96346125299427e-21
2.4090228334295e-20
4.94055181200085e-21
9.79810342791504e-22
6.92559926292898e-21
2.01885967897536e-20
1.04278315166922e-20
5.6559177762681e-20
2.38643216728696e-20
6.91879340565759e-21
1.27816019991358e-21
5.57746294021692e-21
1.25236742094561e-20
6.72389106195125e-21
1.29614741880715e-20
3.20659168294936e-20
5.23085581559362e-20
3.42851116892345e-21
8.61575715201139e-21
7.55889160877178e-21
1.27594433254921e-21
1.50989538893748e-20
1.69476854145889e-20
7.16930616719624e-21
1.07237347859097e-20
1.25510187516171e-21
9.5634326161236e-22
6.41346198092146e-21
1.06684544417928e-20
4.76835427361208e-21
1.55586059906285e-20
5.49965507276883e-22
3.70987389706094e-21
6.87771025028072e-20
1.60582236776626e-20
1.65135164983201e-20
1.14470277678992e-20
1.83945622963872e-21
3.49138135150837e-21
1.02322176860866e-20
4.98207264670984e-20
3.77143079288393e-21
6.69749687463851e-22
3.65632970156488e-21
6.11379823460531e-20
1.23780825144465e-21
1.96070850397663e-21
2.38654462232687e-22
2.75321526312927e-20
2.49593737108635e-20
1.50155812553371e-20
1.01824749440544e-20
1.54744834437461e-20
6.20452300592963e-22
5.68824452627228e-22
2.47916176857135e-21
1.22601373357668e-20
2.78447617096199e-21
1.04252317776777e-21
1.17857469521468e-20
1.27745908810653e-20
9.80099421306129e-22
1.31775626351253e-21
1.38681922319506e-20
6.14893311440626e-20
1.09296771959177e-20
1.04962127141947e-21
6.22394742087698e-21
2.13147725610211e-20
1.5800613911702e-21
1.09556767680121e-20
1.23805471796902e-20
1.46177479671378e-21
9.08959552052245e-21
2.22781080367466e-21
2.46151781211573e-20
3.15741200885511e-22
3.01226892098331e-22
2.16449193157083e-20
1.76218745346629e-20
8.52240807570736e-21
9.69638373220026e-21
3.37414484231208e-20
5.1215059814902e-21
4.17854538196378e-21
7.21129609462428e-21
2.89289640852648e-21
1.99258687510542e-21
2.44795405419924e-21
7.37418986493451e-22
2.53998192068679e-22
1.28499939868418e-20
6.1414540025251e-21
3.08422895777038e-20
5.87185182435876e-21
9.8998679493815e-21
3.85507943438543e-21
1.55627626691699e-20
1.31461696923585e-20
1.74960477532945e-21
1.05109081196808e-20
2.65529401038511e-21
1.08706217581643e-20
5.11260137885196e-21
1.2279564482002e-21
4.59087978748021e-21
1.98924921193685e-20
9.91228191262735e-21
1.41519618629153e-20
5.04038075299566e-21
2.59063220806391e-21
4.9045111794515e-21
4.03348371669932e-21
3.20725666353245e-21
1.73710243867043e-21
8.90848935271678e-21
7.42110094470506e-21
4.53858218730084e-20
1.77433466587306e-20
1.13275246106868e-20
1.90409608337702e-20
1.0168376239423e-21
2.06941184829454e-22
2.27594125784726e-20
2.93299526375112e-21
2.2414436666153e-21
2.18103034616874e-21
5.537824981199e-21
4.64232619671816e-21
1.96135221952645e-20
8.26399748098868e-21
7.30290584962102e-22
1.95528328853366e-20
2.97790198971524e-21
6.90195955614909e-22
7.50979178381388e-21
6.15632419842699e-21
3.40516035237473e-20
1.20908001612277e-20
2.93090011426196e-20
3.37259416702682e-21
3.57478365837534e-21
6.92787731327559e-21
4.17156625898408e-20
6.06412286665368e-22
2.27403950543995e-20
3.21629945632685e-21
5.22469867911879e-21
6.33015454833938e-21
1.69836035268432e-20
2.0068064935936e-20
1.07525627693785e-20
1.48146116249096e-20
2.63724769465397e-20
3.19923773231284e-21
8.94533727199414e-21
2.98692256959205e-21
1.48017029015581e-21
3.53147373531948e-21
1.89370199828083e-20
2.01422715173877e-20
2.82800689996127e-21
1.6260824833534e-20
1.8799542802704e-21
6.11719791222852e-21
2.83095895359073e-21
9.57635530361245e-21
1.0992834187133e-21
5.32592306852378e-21
5.06742316042706e-21
2.79156697528097e-21
1.89079019904633e-20
1.83661646249021e-20
1.41667944022386e-21
2.10564947302255e-20
7.37130207015972e-21
4.37846547798166e-21
5.18255833196787e-20
1.08293514634889e-20
1.19909063484736e-20
8.47691119639368e-21
3.80162571395212e-20
7.52825323301284e-21
1.28934627549076e-20
1.37513921204328e-20
1.56451865501853e-20
8.32840092359847e-21
8.21718697333851e-21
2.83172819292734e-21
2.5712858685213e-21
6.73889428713054e-21
1.23762666604104e-21
6.96804850735901e-20
2.43602243117551e-20
1.57958708336187e-20
1.0749139372598e-20
9.74327089582769e-21
8.24324684994167e-21
5.42719925979166e-21
4.57459165577302e-21
4.72850584237097e-20
2.38118249223825e-21
1.1425551249842e-20
1.6181962961123e-20
3.12791551679503e-21
2.68878802550271e-21
1.53161308258677e-20
5.89628730508111e-22
2.78127430826748e-22
1.05896420073664e-21
3.13374353852815e-20
2.6827934433617e-21
3.89602362221e-21
3.75460478780885e-21
5.05190153737938e-21
4.77910274617506e-23
8.28873885644992e-21
6.48341598108142e-21
4.40263872453139e-20
1.78820099005702e-20
2.67659843158242e-21
6.78107548873999e-21
3.15350694105805e-20
4.67295056447031e-20
1.89975857331247e-21
4.49077981507624e-21
5.01227618221366e-22
3.13873011198239e-20
1.41924014236921e-20
9.7443115571543e-21
5.69712305150518e-21
3.55450408657875e-21
7.85893269203199e-20
6.53766201083639e-22
1.58850545440967e-20
1.60539652102904e-20
2.76905677345959e-20
1.35177998538566e-20
1.72535149354424e-20
1.60692593165367e-21
1.3424662818297e-20
2.58803218788968e-21
1.43298556868601e-20
1.69669847678731e-21
4.10202844067715e-21
2.50561157794087e-21
4.88592047311349e-22
1.26608581343741e-20
8.5980103236435e-21
1.23861971046035e-20
3.8848138255394e-21
1.26361496471105e-21
1.642569199699e-21
8.52725259081254e-21
1.48720248394732e-20
3.7842323079722e-21
1.60985827384532e-20
1.66040993704201e-20
6.43450556726121e-20
9.21634109459019e-21
4.15484328745846e-21
5.46155969426335e-21
6.42358345584888e-21
4.25612517686549e-21
2.49470171493586e-22
2.89155212307448e-20
2.45133333132427e-21
1.68880333523029e-20
3.97255270697452e-21
1.59707671624008e-20
1.26774434296511e-20
9.37306278255695e-21
2.11868188930414e-20
1.01391452619951e-20
1.04867528744393e-20
1.31158146051345e-20
1.25027665804046e-20
5.14349569422322e-20
1.34008557197119e-21
1.14914487715162e-20
1.75872124410162e-20
1.22495133880813e-21
8.47881248707149e-21
2.81959442534811e-20
7.64392278558077e-21
1.24847218959038e-20
1.19721771537527e-20
3.97725918007009e-21
3.38972985098512e-21
4.23534443438947e-21
4.45164548466868e-21
2.60712674139083e-20
4.251554599194e-21
2.42972151478176e-20
1.47224071171164e-20
2.10740785293758e-20
5.51889560981241e-21
6.7157777477797e-22
7.74241027042114e-21
9.85072415025311e-21
1.62468693086393e-20
6.93334728491111e-21
2.36356540849377e-22
2.63492599214366e-21
6.76395646660032e-21
2.13230432900662e-20
2.0985651009593e-21
3.18701953982149e-20
2.55618361243393e-21
1.38341807598617e-20
5.24174926905588e-21
7.85024547732203e-22
9.29200827047839e-21
1.52705118939044e-20
3.77842978336727e-20
9.61914165237739e-21
6.86050697978247e-22
6.59999976954772e-21
3.97870925362033e-20
9.50703791792532e-21
3.55377048766662e-21
2.34979896609418e-20
2.85808965574886e-22
1.86292353663538e-20
3.72062205410964e-21
5.32898657536516e-22
7.35805109946816e-20
3.82360292097249e-20
2.16408412205426e-22
1.1639799991666e-20
3.729128703742e-21
2.75155547492888e-20
4.44886685251851e-21
4.22938315099574e-20
5.34384147964101e-21
1.69855426577422e-20
5.6367223895013e-21
1.78247231018652e-20
1.59266322076818e-20
1.64806874067113e-20
5.30375153147306e-22
6.55486072331099e-21
5.62820982209773e-21
2.12893621292616e-20
7.43424410271428e-21
1.34398594131755e-20
5.37388194863478e-22
7.49573090643751e-21
1.32010404068303e-20
1.67944379422169e-20
5.76449571458366e-21
9.7793827283048e-22
1.35176625707546e-20
1.05120402338507e-20
1.55561459328074e-20
1.27562501160601e-20
1.12009167261764e-20
2.48224976602251e-21
1.08933787212974e-20
6.1389876244623e-22
9.67784707239529e-21
5.89241976739745e-21
2.95328227547052e-21
1.94777484113278e-20
1.29257863054226e-20
4.4212612302862e-21
3.00907365666316e-20
3.96094312951652e-20
3.0769515686992e-20
2.60320584655398e-20
1.52337872268696e-20
3.13171979249869e-20
8.46048801661462e-21
4.38045776198705e-21
1.1230685570962e-20
2.80913219022912e-20
3.75174767251561e-20
3.68341306908907e-21
3.1071218082166e-20
6.27373140517812e-21
3.81241214438018e-20
4.97471712650553e-22
8.48363148818422e-21
5.64178080502207e-21
8.97852040103209e-21
1.96422040945433e-20
2.24345600767249e-22
1.57032150793575e-20
1.47570030703982e-20
3.79068007622275e-21
3.0665231030001e-20
1.35972813097113e-20
2.34675171143548e-20
1.14187647194456e-20
5.69905855619317e-21
2.22342130900677e-21
1.4910844930643e-20
1.08414944428756e-20
4.17931978321358e-21
7.80518800691984e-21
3.2678201715265e-21
1.15507022162487e-20
8.65223485298081e-21
5.76881768205091e-21
8.15152235734623e-21
6.10842186789293e-21
1.13128996177588e-20
1.18740119214632e-20
6.61173927106481e-21
7.90337798786414e-21
1.67001221989321e-20
2.45106988995694e-21
6.54418709573753e-20
3.70358988388703e-20
2.1008859597207e-21
6.32945869046628e-21
6.8379097133282e-21
8.26289113090426e-21
6.04514546821909e-21
2.5398828301564e-20
1.15762479842699e-20
7.56188667820303e-21
1.86291748614781e-20
1.92177734062665e-20
1.14030999777034e-21
6.57439799752e-20
2.04057472522524e-22
3.40716355095808e-20
2.93243107116763e-21
5.70232605191976e-21
5.03628251601475e-21
9.05315973012137e-21
2.04797411546174e-20
2.55098108937307e-20
8.44338156799723e-21
3.91653282475886e-20
1.37573711121859e-20
2.40566243435023e-20
1.34081018586149e-20
9.97837978817059e-21
4.66133110021967e-21
3.18137549313467e-20
2.94527952860391e-22
9.25735757666256e-21
3.11402971164877e-20
1.93832535528618e-20
2.94049016422113e-21
2.62881893842953e-21
5.48880368667045e-21
6.2542632488169e-21
1.91301283355063e-21
6.92247109877947e-21
9.91997857996336e-21
1.06526972612692e-20
1.17777222915261e-20
1.93097295089858e-21
5.8435169518209e-21
5.05771625678798e-21
6.07568870492644e-20
1.10649582466704e-20
2.36499260456071e-21
1.5466122182465e-20
6.42962714081756e-21
3.4295165027032e-21
2.00515709994457e-20
3.80877704797585e-20
6.25595139126557e-22
2.69661477312804e-20
2.14898890390292e-20
2.41666978378269e-20
2.33843695336126e-20
2.8898438879287e-21
1.35526294250423e-22
7.57384391912603e-21
1.22786021666286e-20
5.531953005313e-21
1.63304691676351e-20
2.73958641903002e-20