/*--------------------------------*- C++ -*----------------------------------*\
  =========                 |
  \\      /  F ield         | OpenFOAM: The Open Source CFD Toolbox
   \\    /   O peration     | Website:  https://openfoam.org
    \\  /    A nd           | Version:  7
     \\/     M anipulation  |
\*---------------------------------------------------------------------------*/
FoamFile
{
    version     2.0;
    format      ascii;
    class       labelField;
    location    "0/particle/lagrangian/dsmc";
    object      origId;
}
// * * * * * * * * * * * * * * * * * * * * * * * * * * * * * * * * * * * * * //


87951
(
10750962
10750963
10750964
10750965
10750966
10750967
10750968
10750969
10750970
10750971
10750972
10750973
10750974
10750975
10750976
10750977
10750978
10750979
10750980
10750981
10750982
10750983
10750984
10750985
10750986
10750987
10750988
10750989
10750990
10750991
10750992
10750993
10750994
10750995
10750996
10750997
10750998
10750999
10751000
10751001
10751002
10751003
10751004
10751005
10751006
10751007
10751008
10751009
10751010
10751011
10751012
10751013
10751014
10751015
10751016
10751017
10751018
10751019
10751020
10751021
10751022
10751023
10751024
10751025
10751026
10751027
10751028
10751029
10751030
10751031
10751032
10751033
10751034
10751035
10751036
10751037
10751038
10751039
10751040
10751041
10751042
10751043
10751044
10751045
10751046
10751047
10751048
10751049
10751050
10751051
10751052
10751053
10751054
10751055
10751056
10751057
10751058
10751059
10751060
10751061
10751062
10751063
10751064
10751065
10751066
10751067
10751068
10751069
10751070
10751071
10751072
10751073
10751074
10751075
10751076
10751077
10751078
10751079
10751080
10751081
10751082
10751083
10751084
10751085
10751086
10751087
10751088
10751089
10751090
10751091
10751092
10751093
10751094
10751095
10751096
10751097
10751098
10751099
10751100
10751101
10751102
10751103
10751104
10751105
10751106
10751107
10751108
10751109
10751110
10751111
10751112
10751113
10751114
10751115
10751116
10751117
10751118
10751119
10751120
10751121
10751122
10751123
10751124
10751125
10751126
10751127
10751128
10751129
10751130
10751131
10751132
10751133
10751134
10751135
10751136
10751137
10751138
10751139
10751140
10751141
10751142
10751143
10751144
10751145
10751146
10751147
10751148
10751149
10751150
10751151
10751152
10751153
10751154
10751155
10751156
10751157
10751158
10751159
10751160
10751161
10751162
10751163
10751164
10751165
10751166
10751167
10751168
10751169
10751170
10751171
10751172
10751173
10751174
10751175
10751176
10751177
10751178
10751179
10751180
10751181
10751182
10751183
10751184
10751185
10751186
10751187
10751188
10751189
10751190
10751191
10751192
10751193
10751194
10751195
10751196
10751197
10751198
10751199
10751200
10751201
10751202
10751203
10751204
10751205
10751206
10751207
10751208
10751209
10751210
10751211
10751212
10751213
10751214
10751215
10751216
10751217
10751218
10751219
10751220
10751221
10751222
10751223
10751224
10751225
10751226
10751227
10751228
10751229
10751230
10751231
10751232
10751233
10751234
10751235
10751236
10751237
10751238
10751239
10751240
10751241
10751242
10751243
10751244
10751245
10751246
10751247
10751248
10751249
10751250
10751251
10751252
10751253
10751254
10751255
10751256
10751257
10751258
10751259
10751260
10751261
10751262
10751263
10751264
10751265
10751266
10751267
10751268
10751269
10751270
10751271
10751272
10751273
10751274
10751275
10751276
10751277
10751278
10751279
10751280
10751281
10751282
10751283
10751284
10751285
10751286
10751287
10751288
10751289
10751290
10751291
10751292
10751293
10751294
10751295
10751296
10751297
10751298
10751299
10751300
10751301
10751302
10751303
10751304
10751305
10751306
10751307
10751308
10751309
10751310
10751311
10751312
10751313
10751314
10751315
10751316
10751317
10751318
10751319
10751320
10751321
10751322
10751323
10751324
10751325
10751326
10751327
10751328
10751329
10751330
10751331
10751332
10751333
10751334
10751335
10751336
10751337
10751338
10751339
10751340
10751341
10751342
10751343
10751344
10751345
10751346
10751347
10751348
10751349
10751350
10751351
10751352
10751353
10751354
10751355
10751356
10751357
10751358
10751359
10751360
10751361
10751362
10751363
10751364
10751365
10751366
10751367
10751368
10751369
10751370
10751371
10751372
10751373
10751374
10751375
10751376
10751377
10751378
10751379
10751380
10751381
10751382
10751383
10751384
10751385
10751386
10751387
10751388
10751389
10751390
10751391
10751392
10751393
10751394
10751395
10751396
10751397
10751398
10751399
10751400
10751401
10751402
10751403
10751404
10751405
10751406
10751407
10751408
10751409
10751410
10751411
10751412
10751413
10751414
10751415
10751416
10751417
10751418
10751419
10751420
10751421
10751422
10751423
10751424
10751425
10751426
10751427
10751428
10751429
10751430
10751431
10751432
10751433
10751434
10751435
10751436
10751437
10751438
10751439
10751440
10751441
10751442
10751443
10751444
10751445
10751446
10751447
10751448
10751449
10751450
10751451
10751452
10751453
10751454
10751455
10751456
10751457
10751458
10751459
10751460
10751461
10751462
10751463
10751464
10751465
10751466
10751467
10751468
10751469
10751470
10751471
10751472
10751473
10751474
10751475
10751476
10751477
10751478
10751479
10751480
10751481
10751482
10751483
10751484
10751485
10751486
10751487
10751488
10751489
10751490
10751491
10751492
10751493
10751494
10751495
10751496
10751497
10751498
10751499
10751500
10751501
10751502
10751503
10751504
10751505
10751506
10751507
10751508
10751509
10751510
10751511
10751512
10751513
10751514
10751515
10751516
10751517
10751518
10751519
10751520
10751521
10751522
10751523
10751524
10751525
10751526
10751527
10751528
10751529
10751530
10751531
10751532
10751533
10751534
10751535
10751536
10751537
10751538
10751539
10751540
10751541
10751542
10751543
10751544
10751545
10751546
10751547
10751548
10751549
10751550
10751551
10751552
10751553
10751554
10751555
10751556
10751557
10751558
10751559
10751560
10751561
10751562
10751563
10751564
10751565
10751566
10751567
10751568
10751569
10751570
10751571
10751572
10751573
10751574
10751575
10751576
10751577
10751578
10751579
10751580
10751581
10751582
10751583
10751584
10751585
10751586
10751587
10751588
10751589
10751590
10751591
10751592
10751593
10751594
10751595
10751596
10751597
10751598
10751599
10751600
10751601
10751602
10751603
10751604
10751605
10751606
10751607
10751608
10751609
10751610
10751611
10751612
10751613
10751614
10751615
10751616
10751617
10751618
10751619
10751620
10751621
10751622
10751623
10751624
10751625
10751626
10751627
10751628
10751629
10751630
10751631
10751632
10751633
10751634
10751635
10751636
10751637
10751638
10751639
10751640
10751641
10751642
10751643
10751644
10751645
10751646
10751647
10751648
10751649
10751650
10751651
10751652
10751653
10751654
10751655
10751656
10751657
10751658
10751659
10751660
10751661
10751662
10751663
10751664
10751665
10751666
10751667
10751668
10751669
10751670
10751671
10751672
10751673
10751674
10751675
10751676
10751677
10751678
10751679
10751680
10751681
10751682
10751683
10751684
10751685
10751686
10751687
10751688
10751689
10751690
10751691
10751692
10751693
10751694
10751695
10751696
10751697
10751698
10751699
10751700
10751701
10751702
10751703
10751704
10751705
10751706
10751707
10751708
10751709
10751710
10751711
10751712
10751713
10751714
10751715
10751716
10751717
10751718
10751719
10751720
10751721
10751722
10751723
10751724
10751725
10751726
10751727
10751728
10751729
10751730
10751731
10751732
10751733
10751734
10751735
10751736
10751737
10751738
10751739
10751740
10751741
10751742
10751743
10751744
10751745
10751746
10751747
10751748
10751749
10751750
10751751
10751752
10751753
10751754
10751755
10751756
10751757
10751758
10751759
10751760
10751761
10751762
10751763
10751764
10751765
10751766
10751767
10751768
10751769
10751770
10751771
10751772
10751773
10751774
10751775
10751776
10751777
10751778
10751779
10751780
10751781
10751782
10751783
10751784
10751785
10751786
10751787
10751788
10751789
10751790
10751791
10751792
10751793
10751794
10751795
10751796
10751797
10751798
10751799
10751800
10751801
10751802
10751803
10751804
10751805
10751806
10751807
10751808
10751809
10751810
10751811
10751812
10751813
10751814
10751815
10751816
10751817
10751818
10751819
10751820
10751821
10751822
10751823
10751824
10751825
10751826
10751827
10751828
10751829
10751830
10751831
10751832
10751833
10751834
10751835
10751836
10751837
10751838
10751839
10751840
10751841
10751842
10751843
10751844
10751845
10751846
10751847
10751848
10751849
10751850
10751851
10751852
10751853
10751854
10751855
10751856
10751857
10751858
10751859
10751860
10751861
10751862
10751863
10751864
10751865
10751866
10751867
10751868
10751869
10751870
10751871
10751872
10751873
10751874
10751875
10751876
10751877
10751878
10751879
10751880
10751881
10751882
10751883
10751884
10751885
10751886
10751887
10751888
10751889
10751890
10751891
10751892
10751893
10751894
10751895
10751896
10751897
10751898
10751899
10751900
10751901
10751902
10751903
10751904
10751905
10751906
10751907
10751908
10751909
10751910
10751911
10751912
10751913
10751914
10751915
10751916
10751917
10751918
10751919
10751920
10751921
10751922
10751923
10751924
10751925
10751926
10751927
10751928
10751929
10751930
10751931
10751932
10751933
10751934
10751935
10751936
10751937
10751938
10751939
10751940
10751941
10751942
10751943
10751944
10751945
10751946
10751947
10751948
10751949
10751950
10751951
10751952
10751953
10751954
10751955
10751956
10751957
10751958
10751959
10751960
10751961
10751962
10751963
10751964
10751965
10751966
10751967
10751968
10751969
10751970
10751971
10751972
10751973
10751974
10751975
10751976
10751977
10751978
10751979
10751980
10751981
10751982
10751983
10751984
10751985
10751986
10751987
10751988
10751989
10751990
10751991
10751992
10751993
10751994
10751995
10751996
10751997
10751998
10751999
10752000
10752001
10752002
10752003
10752004
10752005
10752006
10752007
10752008
10752009
10752010
10752011
10752012
10752013
10752014
10752015
10752016
10752017
10752018
10752019
10752020
10752021
10752022
10752023
10752024
10752025
10752026
10752027
10752028
10752029
10752030
10752031
10752032
10752033
10752034
10752035
10752036
10752037
10752038
10752039
10752040
10752041
10752042
10752043
10752044
10752045
10752046
10752047
10752048
10752049
10752050
10752051
10752052
10752053
10752054
10752055
10752056
10752057
10752058
10752059
10752060
10752061
10752062
10752063
10752064
10752065
10752066
10752067
10752068
10752069
10752070
10752071
10752072
10752073
10752074
10752075
10752076
10752077
10752078
10752079
10752080
10752081
10752082
10752083
10752084
10752085
10752086
10752087
10752088
10752089
10752090
10752091
10752092
10752093
10752094
10752095
10752096
10752097
10752098
10752099
10752100
10752101
10752102
10752103
10752104
10752105
10752106
10752107
10752108
10752109
10752110
10752111
10752112
10752113
10752114
10752115
10752116
10752117
10752118
10752119
10752120
10752121
10752122
10752123
10752124
10752125
10752126
10752127
10752128
10752129
10752130
10752131
10752132
10752133
10752134
10752135
10752136
10752137
10752138
10752139
10752140
10752141
10752142
10752143
10752144
10752145
10752146
10752147
10752148
10752149
10752150
10752151
10752152
10752153
10752154
10752155
10752156
10752157
10752158
10752159
10752160
10752161
10752162
10752163
10752164
10752165
10752166
10752167
10752168
10752169
10752170
10752171
10752172
10752173
10752174
10752175
10752176
10752177
10752178
10752179
10752180
10752181
10752182
10752183
10752184
10752185
10752186
10752187
10752188
10752189
10752190
10752191
10752192
10752193
10752194
10752195
10752196
10752197
10752198
10752199
10752200
10752201
10752202
10752203
10752204
10752205
10752206
10752207
10752208
10752209
10752210
10752211
10752212
10752213
10752214
10752215
10752216
10752217
10752218
10752219
10752220
10752221
10752222
10752223
10752224
10752225
10752226
10752227
10752228
10752229
10752230
10752231
10752232
10752233
10752234
10752235
10752236
10752237
10752238
10752239
10752240
10752241
10752242
10752243
10752244
10752245
10752246
10752247
10752248
10752249
10752250
10752251
10752252
10752253
10752254
10752255
10752256
10752257
10752258
10752259
10752260
10752261
10752262
10752263
10752264
10752265
10752266
10752267
10752268
10752269
10752270
10752271
10752272
10752273
10752274
10752275
10752276
10752277
10752278
10752279
10752280
10752281
10752282
10752283
10752284
10752285
10752286
10752287
10752288
10752289
10752290
10752291
10752292
10752293
10752294
10752295
10752296
10752297
10752298
10752299
10752300
10752301
10752302
10752303
10752304
10752305
10752306
10752307
10752308
10752309
10752310
10752311
10752312
10752313
10752314
10752315
10752316
10752317
10752318
10752319
10752320
10752321
10752322
10752323
10752324
10752325
10752326
10752327
10752328
10752329
10752330
10752331
10752332
10752333
10752334
10752335
10752336
10752337
10752338
10752339
10752340
10752341
10752342
10752343
10752344
10752345
10752346
10752347
10752348
10752349
10752350
10752351
10752352
10752353
10752354
10752355
10752356
10752357
10752358
10752359
10752360
10752361
10752362
10752363
10752364
10752365
10752366
10752367
10752368
10752369
10752370
10752371
10752372
10752373
10752374
10752375
10752376
10752377
10752378
10752379
10752380
10752381
10752382
10752383
10752384
10752385
10752386
10752387
10752388
10752389
10752390
10752391
10752392
10752393
10752394
10752395
10752396
10752397
10752398
10752399
10752400
10752401
10752402
10752403
10752404
10752405
10752406
10752407
10752408
10752409
10752410
10752411
10752412
10752413
10752414
10752415
10752416
10752417
10752418
10752419
10752420
10752421
10752422
10752423
10752424
10752425
10752426
10752427
10752428
10752429
10752430
10752431
10752432
10752433
10752434
10752435
10752436
10752437
10752438
10752439
10752440
10752441
10752442
10752443
10752444
10752445
10752446
10752447
10752448
10752449
10752450
10752451
10752452
10752453
10752454
10752455
10752456
10752457
10752458
10752459
10752460
10752461
10752462
10752463
10752464
10752465
10752466
10752467
10752468
10752469
10752470
10752471
10752472
10752473
10752474
10752475
10752476
10752477
10752478
10752479
10752480
10752481
10752482
10752483
10752484
10752485
10752486
10752487
10752488
10752489
10752490
10752491
10752492
10752493
10752494
10752495
10752496
10752497
10752498
10752499
10752500
10752501
10752502
10752503
10752504
10752505
10752506
10752507
10752508
10752509
10752510
10752511
10752512
10752513
10752514
10752515
10752516
10752517
10752518
10752519
10752520
10752521
10752522
10752523
10752524
10752525
10752526
10752527
10752528
10752529
10752530
10752531
10752532
10752533
10752534
10752535
10752536
10752537
10752538
10752539
10752540
10752541
10752542
10752543
10752544
10752545
10752546
10752547
10752548
10752549
10752550
10752551
10752552
10752553
10752554
10752555
10752556
10752557
10752558
10752559
10752560
10752561
10752562
10752563
10752564
10752565
10752566
10752567
10752568
10752569
10752570
10752571
10752572
10752573
10752574
10752575
10752576
10752577
10752578
10752579
10752580
10752581
10752582
10752583
10752584
10752585
10752586
10752587
10752588
10752589
10752590
10752591
10752592
10752593
10752594
10752595
10752596
10752597
10752598
10752599
10752600
10752601
10752602
10752603
10752604
10752605
10752606
10752607
10752608
10752609
10752610
10752611
10752612
10752613
10752614
10752615
10752616
10752617
10752618
10752619
10752620
10752621
10752622
10752623
10752624
10752625
10752626
10752627
10752628
10752629
10752630
10752631
10752632
10752633
10752634
10752635
10752636
10752637
10752638
10752639
10752640
10752641
10752642
10752643
10752644
10752645
10752646
10752647
10752648
10752649
10752650
10752651
10752652
10752653
10752654
10752655
10752656
10752657
10752658
10752659
10752660
10752661
10752662
10752663
10752664
10752665
10752666
10752667
10752668
10752669
10752670
10752671
10752672
10752673
10752674
10752675
10752676
10752677
10752678
10752679
10752680
10752681
10752682
10752683
10752684
10752685
10752686
10752687
10752688
10752689
10752690
10752691
10752692
10752693
10752694
10752695
10752696
10752697
10752698
10752699
10752700
10752701
10752702
10752703
10752704
10752705
10752706
10752707
10752708
10752709
10752710
10752711
10752712
10752713
10752714
10752715
10752716
10752717
10752718
10752719
10752720
10752721
10752722
10752723
10752724
10752725
10752726
10752727
10752728
10752729
10752730
10752731
10752732
10752733
10752734
10752735
10752736
10752737
10752738
10752739
10752740
10752741
10752742
10752743
10752744
10752745
10752746
10752747
10752748
10752749
10752750
10752751
10752752
10752753
10752754
10752755
10752756
10752757
10752758
10752759
10752760
10752761
10752762
10752763
10752764
10752765
10752766
10752767
10752768
10752769
10752770
10752771
10752772
10752773
10752774
10752775
10752776
10752777
10752778
10752779
10752780
10752781
10752782
10752783
10752784
10752785
10752786
10752787
10752788
10752789
10752790
10752791
10752792
10752793
10752794
10752795
10752796
10752797
10752798
10752799
10752800
10752801
10752802
10752803
10752804
10752805
10752806
10752807
10752808
10752809
10752810
10752811
10752812
10752813
10752814
10752815
10752816
10752817
10752818
10752819
10752820
10752821
10752822
10752823
10752824
10752825
10752826
10752827
10752828
10752829
10752830
10752831
10752832
10752833
10752834
10752835
10752836
10752837
10752838
10752839
10752840
10752841
10752842
10752843
10752844
10752845
10752846
10752847
10752848
10752849
10752850
10752851
10752852
10752853
10752854
10752855
10752856
10752857
10752858
10752859
10752860
10752861
10752862
10752863
10752864
10752865
10752866
10752867
10752868
10752869
10752870
10752871
10752872
10752873
10752874
10752875
10752876
10752877
10752878
10752879
10752880
10752881
10752882
10752883
10752884
10752885
10752886
10752887
10752888
10752889
10752890
10752891
10752892
10752893
10752894
10752895
10752896
10752897
10752898
10752899
10752900
10752901
10752902
10752903
10752904
10752905
10752906
10752907
10752908
10752909
10752910
10752911
10752912
10752913
10752914
10752915
10752916
10752917
10752918
10752919
10752920
10752921
10752922
10752923
10752924
10752925
10752926
10752927
10752928
10752929
10752930
10752931
10752932
10752933
10752934
10752935
10752936
10752937
10752938
10752939
10752940
10752941
10752942
10752943
10752944
10752945
10752946
10752947
10752948
10752949
10752950
10752951
10752952
10752953
10752954
10752955
10752956
10752957
10752958
10752959
10752960
10752961
10752962
10752963
10752964
10752965
10752966
10752967
10752968
10752969
10752970
10752971
10752972
10752973
10752974
10752975
10752976
10752977
10752978
10752979
10752980
10752981
10752982
10752983
10752984
10752985
10752986
10752987
10752988
10752989
10752990
10752991
10752992
10752993
10752994
10752995
10752996
10752997
10752998
10752999
10753000
10753001
10753002
10753003
10753004
10753005
10753006
10753007
10753008
10753009
10753010
10753011
10753012
10753013
10753014
10753015
10753016
10753017
10753018
10753019
10753020
10753021
10753022
10753023
10753024
10753025
10753026
10753027
10753028
10753029
10753030
10753031
10753032
10753033
10753034
10753035
10753036
10753037
10753038
10753039
10753040
10753041
10753042
10753043
10753044
10753045
10753046
10753047
10753048
10753049
10753050
10753051
10753052
10753053
10753054
10753055
10753056
10753057
10753058
10753059
10753060
10753061
10753062
10753063
10753064
10753065
10753066
10753067
10753068
10753069
10753070
10753071
10753072
10753073
10753074
10753075
10753076
10753077
10753078
10753079
10753080
10753081
10753082
10753083
10753084
10753085
10753086
10753087
10753088
10753089
10753090
10753091
10753092
10753093
10753094
10753095
10753096
10753097
10753098
10753099
10753100
10753101
10753102
10753103
10753104
10753105
10753106
10753107
10753108
10753109
10753110
10753111
10753112
10753113
10753114
10753115
10753116
10753117
10753118
10753119
10753120
10753121
10753122
10753123
10753124
10753125
10753126
10753127
10753128
10753129
10753130
10753131
10753132
10753133
10753134
10753135
10753136
10753137
10753138
10753139
10753140
10753141
10753142
10753143
10753144
10753145
10753146
10753147
10753148
10753149
10753150
10753151
10753152
10753153
10753154
10753155
10753156
10753157
10753158
10753159
10753160
10753161
10753162
10753163
10753164
10753165
10753166
10753167
10753168
10753169
10753170
10753171
10753172
10753173
10753174
10753175
10753176
10753177
10753178
10753179
10753180
10753181
10753182
10753183
10753184
10753185
10753186
10753187
10753188
10753189
10753190
10753191
10753192
10753193
10753194
10753195
10753196
10753197
10753198
10753199
10753200
10753201
10753202
10753203
10753204
10753205
10753206
10753207
10753208
10753209
10753210
10753211
10753212
10753213
10753214
10753215
10753216
10753217
10753218
10753219
10753220
10753221
10753222
10753223
10753224
10753225
10753226
10753227
10753228
10753229
10753230
10753231
10753232
10753233
10753234
10753235
10753236
10753237
10753238
10753239
10753240
10753241
10753242
10753243
10753244
10753245
10753246
10753247
10753248
10753249
10753250
10753251
10753252
10753253
10753254
10753255
10753256
10753257
10753258
10753259
10753260
10753261
10753262
10753263
10753264
10753265
10753266
10753267
10753268
10753269
10753270
10753271
10753272
10753273
10753274
10753275
10753276
10753277
10753278
10753279
10753280
10753281
10753282
10753283
10753284
10753285
10753286
10753287
10753288
10753289
10753290
10753291
10753292
10753293
10753294
10753295
10753296
10753297
10753298
10753299
10753300
10753301
10753302
10753303
10753304
10753305
10753306
10753307
10753308
10753309
10753310
10753311
10753312
10753313
10753314
10753315
10753316
10753317
10753318
10753319
10753320
10753321
10753322
10753323
10753324
10753325
10753326
10753327
10753328
10753329
10753330
10753331
10753332
10753333
10753334
10753335
10753336
10753337
10753338
10753339
10753340
10753341
10753342
10753343
10753344
10753345
10753346
10753347
10753348
10753349
10753350
10753351
10753352
10753353
10753354
10753355
10753356
10753357
10753358
10753359
10753360
10753361
10753362
10753363
10753364
10753365
10753366
10753367
10753368
10753369
10753370
10753371
10753372
10753373
10753374
10753375
10753376
10753377
10753378
10753379
10753380
10753381
10753382
10753383
10753384
10753385
10753386
10753387
10753388
10753389
10753390
10753391
10753392
10753393
10753394
10753395
10753396
10753397
10753398
10753399
10753400
10753401
10753402
10753403
10753404
10753405
10753406
10753407
10753408
10753409
10753410
10753411
10753412
10753413
10753414
10753415
10753416
10753417
10753418
10753419
10753420
10753421
10753422
10753423
10753424
10753425
10753426
10753427
10753428
10753429
10753430
10753431
10753432
10753433
10753434
10753435
10753436
10753437
10753438
10753439
10753440
10753441
10753442
10753443
10753444
10753445
10753446
10753447
10753448
10753449
10753450
10753451
10753452
10753453
10753454
10753455
10753456
10753457
10753458
10753459
10753460
10753461
10753462
10753463
10753464
10753465
10753466
10753467
10753468
10753469
10753470
10753471
10753472
10753473
10753474
10753475
10753476
10753477
10753478
10753479
10753480
10753481
10753482
10753483
10753484
10753485
10753486
10753487
10753488
10753489
10753490
10753491
10753492
10753493
10753494
10753495
10753496
10753497
10753498
10753499
10753500
10753501
10753502
10753503
10753504
10753505
10753506
10753507
10753508
10753509
10753510
10753511
10753512
10753513
10753514
10753515
10753516
10753517
10753518
10753519
10753520
10753521
10753522
10753523
10753524
10753525
10753526
10753527
10753528
10753529
10753530
10753531
10753532
10753533
10753534
10753535
10753536
10753537
10753538
10753539
10753540
10753541
10753542
10753543
10753544
10753545
10753546
10753547
10753548
10753549
10753550
10753551
10753552
10753553
10753554
10753555
10753556
10753557
10753558
10753559
10753560
10753561
10753562
10753563
10753564
10753565
10753566
10753567
10753568
10753569
10753570
10753571
10753572
10753573
10753574
10753575
10753576
10753577
10753578
10753579
10753580
10753581
10753582
10753583
10753584
10753585
10753586
10753587
10753588
10753589
10753590
10753591
10753592
10753593
10753594
10753595
10753596
10753597
10753598
10753599
10753600
10753601
10753602
10753603
10753604
10753605
10753606
10753607
10753608
10753609
10753610
10753611
10753612
10753613
10753614
10753615
10753616
10753617
10753618
10753619
10753620
10753621
10753622
10753623
10753624
10753625
10753626
10753627
10753628
10753629
10753630
10753631
10753632
10753633
10753634
10753635
10753636
10753637
10753638
10753639
10753640
10753641
10753642
10753643
10753644
10753645
10753646
10753647
10753648
10753649
10753650
10753651
10753652
10753653
10753654
10753655
10753656
10753657
10753658
10753659
10753660
10753661
10753662
10753663
10753664
10753665
10753666
10753667
10753668
10753669
10753670
10753671
10753672
10753673
10753674
10753675
10753676
10753677
10753678
10753679
10753680
10753681
10753682
10753683
10753684
10753685
10753686
10753687
10753688
10753689
10753690
10753691
10753692
10753693
10753694
10753695
10753696
10753697
10753698
10753699
10753700
10753701
10753702
10753703
10753704
10753705
10753706
10753707
10753708
10753709
10753710
10753711
10753712
10753713
10753714
10753715
10753716
10753717
10753718
10753719
10753720
10753721
10753722
10753723
10753724
10753725
10753726
10753727
10753728
10753729
10753730
10753731
10753732
10753733
10753734
10753735
10753736
10753737
10753738
10753739
10753740
10753741
10753742
10753743
10753744
10753745
10753746
10753747
10753748
10753749
10753750
10753751
10753752
10753753
10753754
10753755
10753756
10753757
10753758
10753759
10753760
10753761
10753762
10753763
10753764
10753765
10753766
10753767
10753768
10753769
10753770
10753771
10753772
10753773
10753774
10753775
10753776
10753777
10753778
10753779
10753780
10753781
10753782
10753783
10753784
10753785
10753786
10753787
10753788
10753789
10753790
10753791
10753792
10753793
10753794
10753795
10753796
10753797
10753798
10753799
10753800
10753801
10753802
10753803
10753804
10753805
10753806
10753807
10753808
10753809
10753810
10753811
10753812
10753813
10753814
10753815
10753816
10753817
10753818
10753819
10753820
10753821
10753822
10753823
10753824
10753825
10753826
10753827
10753828
10753829
10753830
10753831
10753832
10753833
10753834
10753835
10753836
10753837
10753838
10753839
10753840
10753841
10753842
10753843
10753844
10753845
10753846
10753847
10753848
10753849
10753850
10753851
10753852
10753853
10753854
10753855
10753856
10753857
10753858
10753859
10753860
10753861
10753862
10753863
10753864
10753865
10753866
10753867
10753868
10753869
10753870
10753871
10753872
10753873
10753874
10753875
10753876
10753877
10753878
10753879
10753880
10753881
10753882
10753883
10753884
10753885
10753886
10753887
10753888
10753889
10753890
10753891
10753892
10753893
10753894
10753895
10753896
10753897
10753898
10753899
10753900
10753901
10753902
10753903
10753904
10753905
10753906
10753907
10753908
10753909
10753910
10753911
10753912
10753913
10753914
10753915
10753916
10753917
10753918
10753919
10753920
10753921
10753922
10753923
10753924
10753925
10753926
10753927
10753928
10753929
10753930
10753931
10753932
10753933
10753934
10753935
10753936
10753937
10753938
10753939
10753940
10753941
10753942
10753943
10753944
10753945
10753946
10753947
10753948
10753949
10753950
10753951
10753952
10753953
10753954
10753955
10753956
10753957
10753958
10753959
10753960
10753961
10753962
10753963
10753964
10753965
10753966
10753967
10753968
10753969
10753970
10753971
10753972
10753973
10753974
10753975
10753976
10753977
10753978
10753979
10753980
10753981
10753982
10753983
10753984
10753985
10753986
10753987
10753988
10753989
10753990
10753991
10753992
10753993
10753994
10753995
10753996
10753997
10753998
10753999
10754000
10754001
10754002
10754003
10754004
10754005
10754006
10754007
10754008
10754009
10754010
10754011
10754012
10754013
10754014
10754015
10754016
10754017
10754018
10754019
10754020
10754021
10754022
10754023
10754024
10754025
10754026
10754027
10754028
10754029
10754030
10754031
10754032
10754033
10754034
10754035
10754036
10754037
10754038
10754039
10754040
10754041
10754042
10754043
10754044
10754045
10754046
10754047
10754048
10754049
10754050
10754051
10754052
10754053
10754054
10754055
10754056
10754057
10754058
10754059
10754060
10754061
10754062
10754063
10754064
10754065
10754066
10754067
10754068
10754069
10754070
10754071
10754072
10754073
10754074
10754075
10754076
10754077
10754078
10754079
10754080
10754081
10754082
10754083
10754084
10754085
10754086
10754087
10754088
10754089
10754090
10754091
10754092
10754093
10754094
10754095
10754096
10754097
10754098
10754099
10754100
10754101
10754102
10754103
10754104
10754105
10754106
10754107
10754108
10754109
10754110
10754111
10754112
10754113
10754114
10754115
10754116
10754117
10754118
10754119
10754120
10754121
10754122
10754123
10754124
10754125
10754126
10754127
10754128
10754129
10754130
10754131
10754132
10754133
10754134
10754135
10754136
10754137
10754138
10754139
10754140
10754141
10754142
10754143
10754144
10754145
10754146
10754147
10754148
10754149
10754150
10754151
10754152
10754153
10754154
10754155
10754156
10754157
10754158
10754159
10754160
10754161
10754162
10754163
10754164
10754165
10754166
10754167
10754168
10754169
10754170
10754171
10754172
10754173
10754174
10754175
10754176
10754177
10754178
10754179
10754180
10754181
10754182
10754183
10754184
10754185
10754186
10754187
10754188
10754189
10754190
10754191
10754192
10754193
10754194
10754195
10754196
10754197
10754198
10754199
10754200
10754201
10754202
10754203
10754204
10754205
10754206
10754207
10754208
10754209
10754210
10754211
10754212
10754213
10754214
10754215
10754216
10754217
10754218
10754219
10754220
10754221
10754222
10754223