/*--------------------------------*- C++ -*----------------------------------*\
  =========                 |
  \\      /  F ield         | OpenFOAM: The Open Source CFD Toolbox
   \\    /   O peration     | Website:  https://openfoam.org
    \\  /    A nd           | Version:  7
     \\/     M anipulation  |
\*---------------------------------------------------------------------------*/
FoamFile
{
    version     2.0;
    format      ascii;
    class       labelField;
    location    "0/particle/lagrangian/dsmc";
    object      origId;
}
// * * * * * * * * * * * * * * * * * * * * * * * * * * * * * * * * * * * * * //


87951
(
9783501
9783502
9783503
9783504
9783505
9783506
9783507
9783508
9783509
9783510
9783511
9783512
9783513
9783514
9783515
9783516
9783517
9783518
9783519
9783520
9783521
9783522
9783523
9783524
9783525
9783526
9783527
9783528
9783529
9783530
9783531
9783532
9783533
9783534
9783535
9783536
9783537
9783538
9783539
9783540
9783541
9783542
9783543
9783544
9783545
9783546
9783547
9783548
9783549
9783550
9783551
9783552
9783553
9783554
9783555
9783556
9783557
9783558
9783559
9783560
9783561
9783562
9783563
9783564
9783565
9783566
9783567
9783568
9783569
9783570
9783571
9783572
9783573
9783574
9783575
9783576
9783577
9783578
9783579
9783580
9783581
9783582
9783583
9783584
9783585
9783586
9783587
9783588
9783589
9783590
9783591
9783592
9783593
9783594
9783595
9783596
9783597
9783598
9783599
9783600
9783601
9783602
9783603
9783604
9783605
9783606
9783607
9783608
9783609
9783610
9783611
9783612
9783613
9783614
9783615
9783616
9783617
9783618
9783619
9783620
9783621
9783622
9783623
9783624
9783625
9783626
9783627
9783628
9783629
9783630
9783631
9783632
9783633
9783634
9783635
9783636
9783637
9783638
9783639
9783640
9783641
9783642
9783643
9783644
9783645
9783646
9783647
9783648
9783649
9783650
9783651
9783652
9783653
9783654
9783655
9783656
9783657
9783658
9783659
9783660
9783661
9783662
9783663
9783664
9783665
9783666
9783667
9783668
9783669
9783670
9783671
9783672
9783673
9783674
9783675
9783676
9783677
9783678
9783679
9783680
9783681
9783682
9783683
9783684
9783685
9783686
9783687
9783688
9783689
9783690
9783691
9783692
9783693
9783694
9783695
9783696
9783697
9783698
9783699
9783700
9783701
9783702
9783703
9783704
9783705
9783706
9783707
9783708
9783709
9783710
9783711
9783712
9783713
9783714
9783715
9783716
9783717
9783718
9783719
9783720
9783721
9783722
9783723
9783724
9783725
9783726
9783727
9783728
9783729
9783730
9783731
9783732
9783733
9783734
9783735
9783736
9783737
9783738
9783739
9783740
9783741
9783742
9783743
9783744
9783745
9783746
9783747
9783748
9783749
9783750
9783751
9783752
9783753
9783754
9783755
9783756
9783757
9783758
9783759
9783760
9783761
9783762
9783763
9783764
9783765
9783766
9783767
9783768
9783769
9783770
9783771
9783772
9783773
9783774
9783775
9783776
9783777
9783778
9783779
9783780
9783781
9783782
9783783
9783784
9783785
9783786
9783787
9783788
9783789
9783790
9783791
9783792
9783793
9783794
9783795
9783796
9783797
9783798
9783799
9783800
9783801
9783802
9783803
9783804
9783805
9783806
9783807
9783808
9783809
9783810
9783811
9783812
9783813
9783814
9783815
9783816
9783817
9783818
9783819
9783820
9783821
9783822
9783823
9783824
9783825
9783826
9783827
9783828
9783829
9783830
9783831
9783832
9783833
9783834
9783835
9783836
9783837
9783838
9783839
9783840
9783841
9783842
9783843
9783844
9783845
9783846
9783847
9783848
9783849
9783850
9783851
9783852
9783853
9783854
9783855
9783856
9783857
9783858
9783859
9783860
9783861
9783862
9783863
9783864
9783865
9783866
9783867
9783868
9783869
9783870
9783871
9783872
9783873
9783874
9783875
9783876
9783877
9783878
9783879
9783880
9783881
9783882
9783883
9783884
9783885
9783886
9783887
9783888
9783889
9783890
9783891
9783892
9783893
9783894
9783895
9783896
9783897
9783898
9783899
9783900
9783901
9783902
9783903
9783904
9783905
9783906
9783907
9783908
9783909
9783910
9783911
9783912
9783913
9783914
9783915
9783916
9783917
9783918
9783919
9783920
9783921
9783922
9783923
9783924
9783925
9783926
9783927
9783928
9783929
9783930
9783931
9783932
9783933
9783934
9783935
9783936
9783937
9783938
9783939
9783940
9783941
9783942
9783943
9783944
9783945
9783946
9783947
9783948
9783949
9783950
9783951
9783952
9783953
9783954
9783955
9783956
9783957
9783958
9783959
9783960
9783961
9783962
9783963
9783964
9783965
9783966
9783967
9783968
9783969
9783970
9783971
9783972
9783973
9783974
9783975
9783976
9783977
9783978
9783979
9783980
9783981
9783982
9783983
9783984
9783985
9783986
9783987
9783988
9783989
9783990
9783991
9783992
9783993
9783994
9783995
9783996
9783997
9783998
9783999
9784000
9784001
9784002
9784003
9784004
9784005
9784006
9784007
9784008
9784009
9784010
9784011
9784012
9784013
9784014
9784015
9784016
9784017
9784018
9784019
9784020
9784021
9784022
9784023
9784024
9784025
9784026
9784027
9784028
9784029
9784030
9784031
9784032
9784033
9784034
9784035
9784036
9784037
9784038
9784039
9784040
9784041
9784042
9784043
9784044
9784045
9784046
9784047
9784048
9784049
9784050
9784051
9784052
9784053
9784054
9784055
9784056
9784057
9784058
9784059
9784060
9784061
9784062
9784063
9784064
9784065
9784066
9784067
9784068
9784069
9784070
9784071
9784072
9784073
9784074
9784075
9784076
9784077
9784078
9784079
9784080
9784081
9784082
9784083
9784084
9784085
9784086
9784087
9784088
9784089
9784090
9784091
9784092
9784093
9784094
9784095
9784096
9784097
9784098
9784099
9784100
9784101
9784102
9784103
9784104
9784105
9784106
9784107
9784108
9784109
9784110
9784111
9784112
9784113
9784114
9784115
9784116
9784117
9784118
9784119
9784120
9784121
9784122
9784123
9784124
9784125
9784126
9784127
9784128
9784129
9784130
9784131
9784132
9784133
9784134
9784135
9784136
9784137
9784138
9784139
9784140
9784141
9784142
9784143
9784144
9784145
9784146
9784147
9784148
9784149
9784150
9784151
9784152
9784153
9784154
9784155
9784156
9784157
9784158
9784159
9784160
9784161
9784162
9784163
9784164
9784165
9784166
9784167
9784168
9784169
9784170
9784171
9784172
9784173
9784174
9784175
9784176
9784177
9784178
9784179
9784180
9784181
9784182
9784183
9784184
9784185
9784186
9784187
9784188
9784189
9784190
9784191
9784192
9784193
9784194
9784195
9784196
9784197
9784198
9784199
9784200
9784201
9784202
9784203
9784204
9784205
9784206
9784207
9784208
9784209
9784210
9784211
9784212
9784213
9784214
9784215
9784216
9784217
9784218
9784219
9784220
9784221
9784222
9784223
9784224
9784225
9784226
9784227
9784228
9784229
9784230
9784231
9784232
9784233
9784234
9784235
9784236
9784237
9784238
9784239
9784240
9784241
9784242
9784243
9784244
9784245
9784246
9784247
9784248
9784249
9784250
9784251
9784252
9784253
9784254
9784255
9784256
9784257
9784258
9784259
9784260
9784261
9784262
9784263
9784264
9784265
9784266
9784267
9784268
9784269
9784270
9784271
9784272
9784273
9784274
9784275
9784276
9784277
9784278
9784279
9784280
9784281
9784282
9784283
9784284
9784285
9784286
9784287
9784288
9784289
9784290
9784291
9784292
9784293
9784294
9784295
9784296
9784297
9784298
9784299
9784300
9784301
9784302
9784303
9784304
9784305
9784306
9784307
9784308
9784309
9784310
9784311
9784312
9784313
9784314
9784315
9784316
9784317
9784318
9784319
9784320
9784321
9784322
9784323
9784324
9784325
9784326
9784327
9784328
9784329
9784330
9784331
9784332
9784333
9784334
9784335
9784336
9784337
9784338
9784339
9784340
9784341
9784342
9784343
9784344
9784345
9784346
9784347
9784348
9784349
9784350
9784351
9784352
9784353
9784354
9784355
9784356
9784357
9784358
9784359
9784360
9784361
9784362
9784363
9784364
9784365
9784366
9784367
9784368
9784369
9784370
9784371
9784372
9784373
9784374
9784375
9784376
9784377
9784378
9784379
9784380
9784381
9784382
9784383
9784384
9784385
9784386
9784387
9784388
9784389
9784390
9784391
9784392
9784393
9784394
9784395
9784396
9784397
9784398
9784399
9784400
9784401
9784402
9784403
9784404
9784405
9784406
9784407
9784408
9784409
9784410
9784411
9784412
9784413
9784414
9784415
9784416
9784417
9784418
9784419
9784420
9784421
9784422
9784423
9784424
9784425
9784426
9784427
9784428
9784429
9784430
9784431
9784432
9784433
9784434
9784435
9784436
9784437
9784438
9784439
9784440
9784441
9784442
9784443
9784444
9784445
9784446
9784447
9784448
9784449
9784450
9784451
9784452
9784453
9784454
9784455
9784456
9784457
9784458
9784459
9784460
9784461
9784462
9784463
9784464
9784465
9784466
9784467
9784468
9784469
9784470
9784471
9784472
9784473
9784474
9784475
9784476
9784477
9784478
9784479
9784480
9784481
9784482
9784483
9784484
9784485
9784486
9784487
9784488
9784489
9784490
9784491
9784492
9784493
9784494
9784495
9784496
9784497
9784498
9784499
9784500
9784501
9784502
9784503
9784504
9784505
9784506
9784507
9784508
9784509
9784510
9784511
9784512
9784513
9784514
9784515
9784516
9784517
9784518
9784519
9784520
9784521
9784522
9784523
9784524
9784525
9784526
9784527
9784528
9784529
9784530
9784531
9784532
9784533
9784534
9784535
9784536
9784537
9784538
9784539
9784540
9784541
9784542
9784543
9784544
9784545
9784546
9784547
9784548
9784549
9784550
9784551
9784552
9784553
9784554
9784555
9784556
9784557
9784558
9784559
9784560
9784561
9784562
9784563
9784564
9784565
9784566
9784567
9784568
9784569
9784570
9784571
9784572
9784573
9784574
9784575
9784576
9784577
9784578
9784579
9784580
9784581
9784582
9784583
9784584
9784585
9784586
9784587
9784588
9784589
9784590
9784591
9784592
9784593
9784594
9784595
9784596
9784597
9784598
9784599
9784600
9784601
9784602
9784603
9784604
9784605
9784606
9784607
9784608
9784609
9784610
9784611
9784612
9784613
9784614
9784615
9784616
9784617
9784618
9784619
9784620
9784621
9784622
9784623
9784624
9784625
9784626
9784627
9784628
9784629
9784630
9784631
9784632
9784633
9784634
9784635
9784636
9784637
9784638
9784639
9784640
9784641
9784642
9784643
9784644
9784645
9784646
9784647
9784648
9784649
9784650
9784651
9784652
9784653
9784654
9784655
9784656
9784657
9784658
9784659
9784660
9784661
9784662
9784663
9784664
9784665
9784666
9784667
9784668
9784669
9784670
9784671
9784672
9784673
9784674
9784675
9784676
9784677
9784678
9784679
9784680
9784681
9784682
9784683
9784684
9784685
9784686
9784687
9784688
9784689
9784690
9784691
9784692
9784693
9784694
9784695
9784696
9784697
9784698
9784699
9784700
9784701
9784702
9784703
9784704
9784705
9784706
9784707
9784708
9784709
9784710
9784711
9784712
9784713
9784714
9784715
9784716
9784717
9784718
9784719
9784720
9784721
9784722
9784723
9784724
9784725
9784726
9784727
9784728
9784729
9784730
9784731
9784732
9784733
9784734
9784735
9784736
9784737
9784738
9784739
9784740
9784741
9784742
9784743
9784744
9784745
9784746
9784747
9784748
9784749
9784750
9784751
9784752
9784753
9784754
9784755
9784756
9784757
9784758
9784759
9784760
9784761
9784762
9784763
9784764
9784765
9784766
9784767
9784768
9784769
9784770
9784771
9784772
9784773
9784774
9784775
9784776
9784777
9784778
9784779
9784780
9784781
9784782
9784783
9784784
9784785
9784786
9784787
9784788
9784789
9784790
9784791
9784792
9784793
9784794
9784795
9784796
9784797
9784798
9784799
9784800
9784801
9784802
9784803
9784804
9784805
9784806
9784807
9784808
9784809
9784810
9784811
9784812
9784813
9784814
9784815
9784816
9784817
9784818
9784819
9784820
9784821
9784822
9784823
9784824
9784825
9784826
9784827
9784828
9784829
9784830
9784831
9784832
9784833
9784834
9784835
9784836
9784837
9784838
9784839
9784840
9784841
9784842
9784843
9784844
9784845
9784846
9784847
9784848
9784849
9784850
9784851
9784852
9784853
9784854
9784855
9784856
9784857
9784858
9784859
9784860
9784861
9784862
9784863
9784864
9784865
9784866
9784867
9784868
9784869
9784870
9784871
9784872
9784873
9784874
9784875
9784876
9784877
9784878
9784879
9784880
9784881
9784882
9784883
9784884
9784885
9784886
9784887
9784888
9784889
9784890
9784891
9784892
9784893
9784894
9784895
9784896
9784897
9784898
9784899
9784900
9784901
9784902
9784903
9784904
9784905
9784906
9784907
9784908
9784909
9784910
9784911
9784912
9784913
9784914
9784915
9784916
9784917
9784918
9784919
9784920
9784921
9784922
9784923
9784924
9784925
9784926
9784927
9784928
9784929
9784930
9784931
9784932
9784933
9784934
9784935
9784936
9784937
9784938
9784939
9784940
9784941
9784942
9784943
9784944
9784945
9784946
9784947
9784948
9784949
9784950
9784951
9784952
9784953
9784954
9784955
9784956
9784957
9784958
9784959
9784960
9784961
9784962
9784963
9784964
9784965
9784966
9784967
9784968
9784969
9784970
9784971
9784972
9784973
9784974
9784975
9784976
9784977
9784978
9784979
9784980
9784981
9784982
9784983
9784984
9784985
9784986
9784987
9784988
9784989
9784990
9784991
9784992
9784993
9784994
9784995
9784996
9784997
9784998
9784999
9785000
9785001
9785002
9785003
9785004
9785005
9785006
9785007
9785008
9785009
9785010
9785011
9785012
9785013
9785014
9785015
9785016
9785017
9785018
9785019
9785020
9785021
9785022
9785023
9785024
9785025
9785026
9785027
9785028
9785029
9785030
9785031
9785032
9785033
9785034
9785035
9785036
9785037
9785038
9785039
9785040
9785041
9785042
9785043
9785044
9785045
9785046
9785047
9785048
9785049
9785050
9785051
9785052
9785053
9785054
9785055
9785056
9785057
9785058
9785059
9785060
9785061
9785062
9785063
9785064
9785065
9785066
9785067
9785068
9785069
9785070
9785071
9785072
9785073
9785074
9785075
9785076
9785077
9785078
9785079
9785080
9785081
9785082
9785083
9785084
9785085
9785086
9785087
9785088
9785089
9785090
9785091
9785092
9785093
9785094
9785095
9785096
9785097
9785098
9785099
9785100
9785101
9785102
9785103
9785104
9785105
9785106
9785107
9785108
9785109
9785110
9785111
9785112
9785113
9785114
9785115
9785116
9785117
9785118
9785119
9785120
9785121
9785122
9785123
9785124
9785125
9785126
9785127
9785128
9785129
9785130
9785131
9785132
9785133
9785134
9785135
9785136
9785137
9785138
9785139
9785140
9785141
9785142
9785143
9785144
9785145
9785146
9785147
9785148
9785149
9785150
9785151
9785152
9785153
9785154
9785155
9785156
9785157
9785158
9785159
9785160
9785161
9785162
9785163
9785164
9785165
9785166
9785167
9785168
9785169
9785170
9785171
9785172
9785173
9785174
9785175
9785176
9785177
9785178
9785179
9785180
9785181
9785182
9785183
9785184
9785185
9785186
9785187
9785188
9785189
9785190
9785191
9785192
9785193
9785194
9785195
9785196
9785197
9785198
9785199
9785200
9785201
9785202
9785203
9785204
9785205
9785206
9785207
9785208
9785209
9785210
9785211
9785212
9785213
9785214
9785215
9785216
9785217
9785218
9785219
9785220
9785221
9785222
9785223
9785224
9785225
9785226
9785227
9785228
9785229
9785230
9785231
9785232
9785233
9785234
9785235
9785236
9785237
9785238
9785239
9785240
9785241
9785242
9785243
9785244
9785245
9785246
9785247
9785248
9785249
9785250
9785251
9785252
9785253
9785254
9785255
9785256
9785257
9785258
9785259
9785260
9785261
9785262
9785263
9785264
9785265
9785266
9785267
9785268
9785269
9785270
9785271
9785272
9785273
9785274
9785275
9785276
9785277
9785278
9785279
9785280
9785281
9785282
9785283
9785284
9785285
9785286
9785287
9785288
9785289
9785290
9785291
9785292
9785293
9785294
9785295
9785296
9785297
9785298
9785299
9785300
9785301
9785302
9785303
9785304
9785305
9785306
9785307
9785308
9785309
9785310
9785311
9785312
9785313
9785314
9785315
9785316
9785317
9785318
9785319
9785320
9785321
9785322
9785323
9785324
9785325
9785326
9785327
9785328
9785329
9785330
9785331
9785332
9785333
9785334
9785335
9785336
9785337
9785338
9785339
9785340
9785341
9785342
9785343
9785344
9785345
9785346
9785347
9785348
9785349
9785350
9785351
9785352
9785353
9785354
9785355
9785356
9785357
9785358
9785359
9785360
9785361
9785362
9785363
9785364
9785365
9785366
9785367
9785368
9785369
9785370
9785371
9785372
9785373
9785374
9785375
9785376
9785377
9785378
9785379
9785380
9785381
9785382
9785383
9785384
9785385
9785386
9785387
9785388
9785389
9785390
9785391
9785392
9785393
9785394
9785395
9785396
9785397
9785398
9785399
9785400
9785401
9785402
9785403
9785404
9785405
9785406
9785407
9785408
9785409
9785410
9785411
9785412
9785413
9785414
9785415
9785416
9785417
9785418
9785419
9785420
9785421
9785422
9785423
9785424
9785425
9785426
9785427
9785428
9785429
9785430
9785431
9785432
9785433
9785434
9785435
9785436
9785437
9785438
9785439
9785440
9785441
9785442
9785443
9785444
9785445
9785446
9785447
9785448
9785449
9785450
9785451
9785452
9785453
9785454
9785455
9785456
9785457
9785458
9785459
9785460
9785461
9785462
9785463
9785464
9785465
9785466
9785467
9785468
9785469
9785470
9785471
9785472
9785473
9785474
9785475
9785476
9785477
9785478
9785479
9785480
9785481
9785482
9785483
9785484
9785485
9785486
9785487
9785488
9785489
9785490
9785491
9785492
9785493
9785494
9785495
9785496
9785497
9785498
9785499
9785500
9785501
9785502
9785503
9785504
9785505
9785506
9785507
9785508
9785509
9785510
9785511
9785512
9785513
9785514
9785515
9785516
9785517
9785518
9785519
9785520
9785521
9785522
9785523
9785524
9785525
9785526
9785527
9785528
9785529
9785530
9785531
9785532
9785533
9785534
9785535
9785536
9785537
9785538
9785539
9785540
9785541
9785542
9785543
9785544
9785545
9785546
9785547
9785548
9785549
9785550
9785551
9785552
9785553
9785554
9785555
9785556
9785557
9785558
9785559
9785560
9785561
9785562
9785563
9785564
9785565
9785566
9785567
9785568
9785569
9785570
9785571
9785572
9785573
9785574
9785575
9785576
9785577
9785578
9785579
9785580
9785581
9785582
9785583
9785584
9785585
9785586
9785587
9785588
9785589
9785590
9785591
9785592
9785593
9785594
9785595
9785596
9785597
9785598
9785599
9785600
9785601
9785602
9785603
9785604
9785605
9785606
9785607
9785608
9785609
9785610
9785611
9785612
9785613
9785614
9785615
9785616
9785617
9785618
9785619
9785620
9785621
9785622
9785623
9785624
9785625
9785626
9785627
9785628
9785629
9785630
9785631
9785632
9785633
9785634
9785635
9785636
9785637
9785638
9785639
9785640
9785641
9785642
9785643
9785644
9785645
9785646
9785647
9785648
9785649
9785650
9785651
9785652
9785653
9785654
9785655
9785656
9785657
9785658
9785659
9785660
9785661
9785662
9785663
9785664
9785665
9785666
9785667
9785668
9785669
9785670
9785671
9785672
9785673
9785674
9785675
9785676
9785677
9785678
9785679
9785680
9785681
9785682
9785683
9785684
9785685
9785686
9785687
9785688
9785689
9785690
9785691
9785692
9785693
9785694
9785695
9785696
9785697
9785698
9785699
9785700
9785701
9785702
9785703
9785704
9785705
9785706
9785707
9785708
9785709
9785710
9785711
9785712
9785713
9785714
9785715
9785716
9785717
9785718
9785719
9785720
9785721
9785722
9785723
9785724
9785725
9785726
9785727
9785728
9785729
9785730
9785731
9785732
9785733
9785734
9785735
9785736
9785737
9785738
9785739
9785740
9785741
9785742
9785743
9785744
9785745
9785746
9785747
9785748
9785749
9785750
9785751
9785752
9785753
9785754
9785755
9785756
9785757
9785758
9785759
9785760
9785761
9785762
9785763
9785764
9785765
9785766
9785767
9785768
9785769
9785770
9785771
9785772
9785773
9785774
9785775
9785776
9785777
9785778
9785779
9785780
9785781
9785782
9785783
9785784
9785785
9785786
9785787
9785788
9785789
9785790
9785791
9785792
9785793
9785794
9785795
9785796
9785797
9785798
9785799
9785800
9785801
9785802
9785803
9785804
9785805
9785806
9785807
9785808
9785809
9785810
9785811
9785812
9785813
9785814
9785815
9785816
9785817
9785818
9785819
9785820
9785821
9785822
9785823
9785824
9785825
9785826
9785827
9785828
9785829
9785830
9785831
9785832
9785833
9785834
9785835
9785836
9785837
9785838
9785839
9785840
9785841
9785842
9785843
9785844
9785845
9785846
9785847
9785848
9785849
9785850
9785851
9785852
9785853
9785854
9785855
9785856
9785857
9785858
9785859
9785860
9785861
9785862
9785863
9785864
9785865
9785866
9785867
9785868
9785869
9785870
9785871
9785872
9785873
9785874
9785875
9785876
9785877
9785878
9785879
9785880
9785881
9785882
9785883
9785884
9785885
9785886
9785887
9785888
9785889
9785890
9785891
9785892
9785893
9785894
9785895
9785896
9785897
9785898
9785899
9785900
9785901
9785902
9785903
9785904
9785905
9785906
9785907
9785908
9785909
9785910
9785911
9785912
9785913
9785914
9785915
9785916
9785917
9785918
9785919
9785920
9785921
9785922
9785923
9785924
9785925
9785926
9785927
9785928
9785929
9785930
9785931
9785932
9785933
9785934
9785935
9785936
9785937
9785938
9785939
9785940
9785941
9785942
9785943
9785944
9785945
9785946
9785947
9785948
9785949
9785950
9785951
9785952
9785953
9785954
9785955
9785956
9785957
9785958
9785959
9785960
9785961
9785962
9785963
9785964
9785965
9785966
9785967
9785968
9785969
9785970
9785971
9785972
9785973
9785974
9785975
9785976
9785977
9785978
9785979
9785980
9785981
9785982
9785983
9785984
9785985
9785986
9785987
9785988
9785989
9785990
9785991
9785992
9785993
9785994
9785995
9785996
9785997
9785998
9785999
9786000
9786001
9786002
9786003
9786004
9786005
9786006
9786007
9786008
9786009
9786010
9786011
9786012
9786013
9786014
9786015
9786016
9786017
9786018
9786019
9786020
9786021
9786022
9786023
9786024
9786025
9786026
9786027
9786028
9786029
9786030
9786031
9786032
9786033
9786034
9786035
9786036
9786037
9786038
9786039
9786040
9786041
9786042
9786043
9786044
9786045
9786046
9786047
9786048
9786049
9786050
9786051
9786052
9786053
9786054
9786055
9786056
9786057
9786058
9786059
9786060
9786061
9786062
9786063
9786064
9786065
9786066
9786067
9786068
9786069
9786070
9786071
9786072
9786073
9786074
9786075
9786076
9786077
9786078
9786079
9786080
9786081
9786082
9786083
9786084
9786085
9786086
9786087
9786088
9786089
9786090
9786091
9786092
9786093
9786094
9786095
9786096
9786097
9786098
9786099
9786100
9786101
9786102
9786103
9786104
9786105
9786106
9786107
9786108
9786109
9786110
9786111
9786112
9786113
9786114
9786115
9786116
9786117
9786118
9786119
9786120
9786121
9786122
9786123
9786124
9786125
9786126
9786127
9786128
9786129
9786130
9786131
9786132
9786133
9786134
9786135
9786136
9786137
9786138
9786139
9786140
9786141
9786142
9786143
9786144
9786145
9786146
9786147
9786148
9786149
9786150
9786151
9786152
9786153
9786154
9786155
9786156
9786157
9786158
9786159
9786160
9786161
9786162
9786163
9786164
9786165
9786166
9786167
9786168
9786169
9786170
9786171
9786172
9786173
9786174
9786175
9786176
9786177
9786178
9786179
9786180
9786181
9786182
9786183
9786184
9786185
9786186
9786187
9786188
9786189
9786190
9786191
9786192
9786193
9786194
9786195
9786196
9786197
9786198
9786199
9786200
9786201
9786202
9786203
9786204
9786205
9786206
9786207
9786208
9786209
9786210
9786211
9786212
9786213
9786214
9786215
9786216
9786217
9786218
9786219
9786220
9786221
9786222
9786223
9786224
9786225
9786226
9786227
9786228
9786229
9786230
9786231
9786232
9786233
9786234
9786235
9786236
9786237
9786238
9786239
9786240
9786241
9786242
9786243
9786244
9786245
9786246
9786247
9786248
9786249
9786250
9786251
9786252
9786253
9786254
9786255
9786256
9786257
9786258
9786259
9786260
9786261
9786262
9786263
9786264
9786265
9786266
9786267
9786268
9786269
9786270
9786271
9786272
9786273
9786274
9786275
9786276
9786277
9786278
9786279
9786280
9786281
9786282
9786283
9786284
9786285
9786286
9786287
9786288
9786289
9786290
9786291
9786292
9786293
9786294
9786295
9786296
9786297
9786298
9786299
9786300
9786301
9786302
9786303
9786304
9786305
9786306
9786307
9786308
9786309
9786310
9786311
9786312
9786313
9786314
9786315
9786316
9786317
9786318
9786319
9786320
9786321
9786322
9786323
9786324
9786325
9786326
9786327
9786328
9786329
9786330
9786331
9786332
9786333
9786334
9786335
9786336
9786337
9786338
9786339
9786340
9786341
9786342
9786343
9786344
9786345
9786346
9786347
9786348
9786349
9786350
9786351
9786352
9786353
9786354
9786355
9786356
9786357
9786358
9786359
9786360
9786361
9786362
9786363
9786364
9786365
9786366
9786367
9786368
9786369
9786370
9786371
9786372
9786373
9786374
9786375
9786376
9786377
9786378
9786379
9786380
9786381
9786382
9786383
9786384
9786385
9786386
9786387
9786388
9786389
9786390
9786391
9786392
9786393
9786394
9786395
9786396
9786397
9786398
9786399
9786400
9786401
9786402
9786403
9786404
9786405
9786406
9786407
9786408
9786409
9786410
9786411
9786412
9786413
9786414
9786415
9786416
9786417
9786418
9786419
9786420
9786421
9786422
9786423
9786424
9786425
9786426
9786427
9786428
9786429
9786430
9786431
9786432
9786433
9786434
9786435
9786436
9786437
9786438
9786439
9786440
9786441
9786442
9786443
9786444
9786445
9786446
9786447
9786448
9786449
9786450
9786451
9786452
9786453
9786454
9786455
9786456
9786457
9786458
9786459
9786460
9786461
9786462
9786463
9786464
9786465
9786466
9786467
9786468
9786469
9786470
9786471
9786472
9786473
9786474
9786475
9786476
9786477
9786478
9786479
9786480
9786481
9786482
9786483
9786484
9786485
9786486
9786487
9786488
9786489
9786490
9786491
9786492
9786493
9786494
9786495
9786496
9786497
9786498
9786499
9786500
9786501
9786502
9786503
9786504
9786505
9786506
9786507
9786508
9786509
9786510
9786511
9786512
9786513
9786514
9786515
9786516
9786517
9786518
9786519
9786520
9786521
9786522
9786523
9786524
9786525
9786526
9786527
9786528
9786529
9786530
9786531
9786532
9786533
9786534
9786535
9786536
9786537
9786538
9786539
9786540
9786541
9786542
9786543
9786544
9786545
9786546
9786547
9786548
9786549
9786550
9786551
9786552
9786553
9786554
9786555
9786556
9786557
9786558
9786559
9786560
9786561
9786562
9786563
9786564
9786565
9786566
9786567
9786568
9786569
9786570
9786571
9786572
9786573
9786574
9786575
9786576
9786577
9786578
9786579
9786580
9786581
9786582
9786583
9786584
9786585
9786586
9786587
9786588
9786589
9786590
9786591
9786592
9786593
9786594
9786595
9786596
9786597
9786598
9786599
9786600
9786601
9786602
9786603
9786604
9786605
9786606
9786607
9786608
9786609
9786610
9786611
9786612
9786613
9786614
9786615
9786616
9786617
9786618
9786619
9786620
9786621
9786622
9786623
9786624
9786625
9786626
9786627
9786628
9786629
9786630
9786631
9786632
9786633
9786634
9786635
9786636
9786637
9786638
9786639
9786640
9786641
9786642
9786643
9786644
9786645
9786646
9786647
9786648
9786649
9786650
9786651
9786652
9786653
9786654
9786655
9786656
9786657
9786658
9786659
9786660
9786661
9786662
9786663
9786664
9786665
9786666
9786667
9786668
9786669
9786670
9786671
9786672
9786673
9786674
9786675
9786676
9786677
9786678
9786679
9786680
9786681
9786682
9786683
9786684
9786685
9786686
9786687
9786688
9786689
9786690
9786691
9786692
9786693
9786694
9786695
9786696
9786697
9786698
9786699
9786700
9786701
9786702
9786703
9786704
9786705
9786706
9786707
9786708
9786709
9786710
9786711
9786712
9786713
9786714
9786715
9786716
9786717
9786718
9786719
9786720
9786721
9786722
9786723
9786724
9786725
9786726
9786727
9786728
9786729
9786730
9786731
9786732
9786733
9786734
9786735
9786736
9786737
9786738
9786739
9786740
9786741
9786742
9786743
9786744
9786745
9786746
9786747
9786748
9786749
9786750
9786751
9786752
9786753
9786754
9786755
9786756
9786757
9786758
9786759
9786760
9786761
9786762
9786763
9786764
9786765
9786766
9786767
9786768
9786769
9786770
9786771
9786772
9786773
9786774
9786775
9786776
9786777
9786778
9786779
9786780
9786781
9786782
9786783
9786784
9786785
9786786
9786787
9786788
9786789
9786790
9786791
9786792
9786793
9786794
9786795
9786796
9786797
9786798
9786799
9786800
9786801
9786802
9786803
9786804
9786805
9786806
9786807
9786808
9786809
9786810
9786811
9786812
9786813
9786814
9786815
9786816
9786817
9786818
9786819
9786820
9786821
9786822
9786823
9786824
9786825
9786826
9786827
9786828
9786829
9786830
9786831
9786832
9786833
9786834
9786835
9786836
9786837
9786838
9786839
9786840
9786841
9786842
9786843
9786844
9786845
9786846
9786847
9786848
9786849
9786850
9786851
9786852
9786853
9786854
9786855
9786856
9786857
9786858
9786859
9786860
9786861
9786862
9786863
9786864
9786865
9786866
9786867
9786868
9786869
9786870
9786871
9786872
9786873
9786874
9786875
9786876
9786877
9786878
9786879
9786880
9786881
9786882
9786883
9786884
9786885
9786886
9786887
9786888
9786889
9786890
9786891
9786892
9786893
9786894
9786895
9786896
9786897
9786898
9786899
9786900
9786901
9786902
9786903
9786904
9786905
9786906
9786907
9786908
9786909
9786910
9786911
9786912
9786913
9786914
9786915
9786916
9786917
9786918
9786919
9786920
9786921
9786922
9786923
9786924
9786925
9786926
9786927
9786928
9786929
9786930
9786931
9786932
9786933
9786934
9786935
9786936
9786937
9786938
9786939
9786940
9786941
9786942
9786943
9786944
9786945
9786946
9786947
9786948
9786949
9786950
9786951
9786952
9786953
9786954
9786955
9786956
9786957
9786958
9786959
9786960
9786961
9786962
9786963
9786964
9786965
9786966
9786967
9786968
9786969
9786970
9786971
9786972
9786973
9786974
9786975
9786976
9786977
9786978
9786979
9786980
9786981
9786982
9786983
9786984
9786985
9786986
9786987
9786988
9786989
9786990
9786991
9786992
9786993
9786994
9786995
9786996
9786997
9786998
9786999
9787000
9787001
9787002
9787003
9787004
9787005
9787006
9787007
9787008
9787009
9787010
9787011
9787012
9787013
9787014
9787015
9787016
9787017
9787018
9787019
9787020
9787021
9787022
9787023
9787024
9787025
9787026
9787027
9787028
9787029
9787030
9787031
9787032
9787033
9787034
9787035
9787036
9787037
9787038
9787039
9787040
9787041
9787042
9787043
9787044
9787045
9787046
9787047
9787048
9787049
9787050
9787051
9787052
9787053
9787054
9787055
9787056
9787057
9787058
9787059
9787060
9787061
9787062
9787063
9787064
9787065
9787066
9787067
9787068
9787069
9787070
9787071
9787072
9787073
9787074
9787075
9787076
9787077
9787078
9787079
9787080
9787081
9787082
9787083
9787084
9787085
9787086
9787087
9787088
9787089
9787090
9787091
9787092
9787093
9787094
9787095
9787096
9787097
9787098
9787099
9787100
9787101
9787102
9787103
9787104
9787105
9787106
9787107
9787108
9787109
9787110
9787111
9787112
9787113
9787114
9787115
9787116
9787117
9787118
9787119
9787120
9787121
9787122
9787123
9787124
9787125
9787126
9787127
9787128
9787129
9787130
9787131
9787132
9787133
9787134
9787135
9787136
9787137
9787138
9787139
9787140
9787141
9787142
9787143
9787144
9787145
9787146
9787147
9787148
9787149
9787150
9787151
9787152
9787153
9787154
9787155
9787156
9787157
9787158
9787159
9787160
9787161
9787162
9787163
9787164
9787165
9787166
9787167
9787168
9787169
9787170