/*--------------------------------*- C++ -*----------------------------------*\
  =========                 |
  \\      /  F ield         | OpenFOAM: The Open Source CFD Toolbox
   \\    /   O peration     | Website:  https://openfoam.org
    \\  /    A nd           | Version:  7
     \\/     M anipulation  |
\*---------------------------------------------------------------------------*/
FoamFile
{
    version     2.0;
    format      ascii;
    class       Cloud<dsmcParcel>;
    location    "0/particle/lagrangian/dsmc";
    object      positions;
}
// * * * * * * * * * * * * * * * * * * * * * * * * * * * * * * * * * * * * * //

7342
(
(0.495043368078784 0.0905051655135969 0.203784712124616 0.210666754283003) 0 0 1
(0.293376238085325 0.21795242559165 0.389028981328011 0.0996423549950145) 0 0 1
(0.141911382786922 0.191924918442968 0.519826568197463 0.146337130572647) 0 0 2
(0.138142747338857 0.465564116369935 0.374004623387011 0.022288512904197) 0 0 2
(0.54675153363498 0.0978328189812504 0.0107955411076546 0.344620106276115) 0 600 1
(0.0295846005901704 0.0516051603481168 0.614539512433112 0.304270726628601) 0 600 1
(0.131677779834713 0.337297601159664 0.247298649977895 0.283725969027728) 0 600 2
(0.0710356016643471 0.222887770738446 0.546486985404038 0.159589642193168) 0 600 2
(0.115438146982342 0.0108489748090518 0.132674803957342 0.741038074251264) 0 601 1
(0.645031811203808 0.161948817782096 0.0141548775136554 0.178864493500441) 0 601 1
(0.0276177753694355 0.873391703702509 0.0580274537205666 0.0409630672074885) 0 601 2
(0.337834456004202 0.167145962826908 0.267637870740148 0.227381710428743) 0 601 2
(0.131907627452165 0.473018536809845 0.388981700874852 0.00609213486313818) 0 1201 1
(0.0123208784498274 0.173972451593727 0.090928003191948 0.722778666764498) 0 1201 1
(0.362523547839373 0.543880770914257 0.0929081570357015 0.000687524210668567) 0 1201 2
(0.0556898415088654 0.341403415892273 0.106071841437355 0.496834901161507) 0 1201 2
(0.360132724512368 0.0961889619939029 0.0983564304188019 0.445321883074927) 0 1801 1
(0.743670119903982 0.0447250595316291 0.173276063986115 0.038328756578274) 0 1801 1
(0.00113843102008104 0.269812905229624 0.157992166467011 0.571056497283284) 0 1801 2
(0.147796461358666 0.125213487539449 0.403658791910857 0.323331259191028) 0 1801 2
(0.514833287335932 0.0624349531717599 0.271040366496894 0.151691392995414) 0 2401 1
(0.131071210373193 0.138055494055156 0.457495596725494 0.273377698846157) 0 2401 2
(0.201982327736914 0.488020571880046 0.163369887042791 0.146627213340249) 0 2401 2
(0.222172598354526 0.267290256451812 0.494353277608752 0.0161838675849103) 1 1 1
(0.0886920671910186 0.000508975703262289 0.22010022168979 0.690698735415929) 1 1 1
(0.0733106159605406 0.321841088123604 0.58910312969236 0.0157451662234962) 1 1 2
(0.415492294356258 0.324743676464989 0.213473985437288 0.0462900437414646) 1 1 2
(0.0196809531189501 0.886713571846486 0.0035884678363793 0.0900170071981847) 1 602 1
(0.236780782230198 0.246119238436222 0.0508917607367042 0.466208218596876) 1 602 1
(0.59854456409812 0.0404304643161595 0.355106227565552 0.00591874402016861) 1 602 2
(0.0187832955271005 0.314604933839291 0.535151543095709 0.1314602275379) 1 602 2
(0.158596982713789 0.231282742694025 0.191980979871 0.418139294721186) 1 1202 1
(0.325941303744912 0.248453525826334 0.398065117653461 0.0275400527752936) 1 1202 1
(0.311703203245997 0.273845771327615 0.217235125135625 0.197215900290763) 1 1202 2
(0.262462859973311 0.237573096062988 0.290172436274585 0.209791607689115) 1 1202 2
(0.319204865023494 0.38476739032194 0.18996845744551 0.106059287209056) 1 1802 1
(0.488331836648285 0.438583924435079 0.0246321894228522 0.0484520494937833) 1 1802 1
(0.0672518527135253 0.244966760743413 0.0294406288303434 0.658340757712718) 1 1802 2
(0.234262752346694 0.216945135965953 0.51573868887499 0.0330534228123629) 1 1802 2
(0.299940305761993 0.165730257052928 0.188557120040055 0.345772317145024) 1 2402 1
(0.659550788346678 0.226725845132023 0.0273094717413029 0.086413894779996) 1 2402 1
(0.252039744984359 0.277335449587552 0.145014618057758 0.325610187370332) 1 2402 2
(0.000513385049998649 0.074494233354919 0.182180838193744 0.742811543401338) 1 2402 2
(0.34176837000995 0.0513224317692264 0.0491075548343404 0.557801643386483) 1 0 1
(0.245643386151656 0.356044705025845 0.34648617031052 0.0518257385119796) 1 0 1
(0.368539066053949 0.124074537772674 0.294084966182709 0.213301429990668) 1 0 2
(0.118985429871812 0.00986924907193345 0.575421479996294 0.295723841059961) 1 0 2
(0.179416432511066 0.216723720543084 0.00805790675804018 0.59580194018781) 2 2 1
(0.645697831176214 0.102781609166417 0.0606398489326239 0.190880710724745) 2 2 1
(0.0483943894505222 0.0914919110946496 0.31051466474311 0.549599034711719) 2 2 2
(0.478267280850575 0.368446040432892 0.00263896817340665 0.150647710543126) 2 2 2
(0.381313444580883 0.073397421743719 0.115051827859135 0.430237305816263) 2 603 1
(0.0834548873826861 0.143001780379568 0.0581011655740397 0.715442166663706) 2 603 1
(0.107069489080459 0.495694970712066 0.172709374222902 0.224526165984574) 2 603 2
(0.201669708359987 0.319744313601404 0.152272005099803 0.326313972938806) 2 603 2
(0.241463422775269 0.528257231693726 0.0951106473803411 0.135168698150665) 2 1203 1
(0.0225041136145592 0.575964502524569 0.363005428109334 0.0385259557515383) 2 1203 1
(0.200908365659416 0.453005583956838 0.280985724646594 0.0651003257371529) 2 1203 2
(0.231987287290394 0.228741956874728 0.250628757290551 0.288641998544327) 2 1203 2
(0.197452393826097 0.0227353051304817 0.126765693072214 0.653046607971207) 2 1803 1
(0.121901478152722 0.629190474748611 0.0205677184276272 0.228340328671039) 2 1803 1
(0.192703960463405 0.458833789918574 0.133620472159237 0.214841777458784) 2 1803 2
(0.409235541708767 0.358449546154581 0.0435475134290755 0.188767398707576) 2 1803 2
(0.408133707940578 0.147649821359664 0.237558949273089 0.206657521426669) 2 2403 1
(0.600441644433886 0.0835017939098179 0.253666529431941 0.0623900322243555) 2 2403 1
(0.206973243504763 0.15871169697493 0.136745975352824 0.497569084167484) 2 2403 2
(0.208131699822843 0.333933115936817 0.0855595855973661 0.372375598642974) 2 2403 2
(0.108680767938465 0.197888036258534 0.515723148826525 0.177708046976477) 2 1 1
(0.491670017130696 0.0865959334187095 0.21889900555833 0.202835043892264) 2 1 1
(0.338678407482814 0.11731558432802 0.45505900727585 0.0889470009133166) 2 1 2
(0.37180201616139 0.405289892572906 0.0188305960036814 0.204077495262023) 2 1 2
(0.00503462832419621 0.0415359968319607 0.152542181313038 0.800887193530805) 3 3 1
(0.206842090003207 0.39938617916777 0.316100217867643 0.0776715129613803) 3 3 1
(0.0860715773887557 0.183327339123953 0.0316639617085644 0.698937121778727) 3 3 2
(0.470481571741402 0.0691182678565479 0.234725683927526 0.225674476474524) 3 604 1
(0.316441278439015 0.020069195888947 0.354801871813823 0.308687653858215) 3 604 1
(0.222535414621234 0.215366911608726 0.234883527737117 0.327214146032924) 3 604 2
(0.25996988080442 0.227442286908627 0.374688116367903 0.137899715919051) 3 604 2
(0.274108678102493 0.438241108320643 0.103333958424638 0.184316255152225) 3 1204 1
(0.611298352945596 0.225797821767632 0.134441850706932 0.0284619745798409) 3 1204 1
(0.386866458225995 0.285731388721615 0.28036481142043 0.0470373416319593) 3 1204 2
(0.158181263599545 0.318271100986749 0.106404589489107 0.417143045924599) 3 1204 2
(0.159459638409317 0.615168299525976 0.0374040589667824 0.187968003097925) 3 1804 1
(0.33996106358245 0.128940565511584 0.513963572680935 0.0171347982250306) 3 1804 1
(0.188661157153547 0.064718644134707 0.256808267906308 0.489811930805438) 3 1804 2
(0.39031797926873 0.172389433253562 0.383422850631177 0.0538697368465313) 3 1804 2
(0.183235279284418 0.174360771663487 0.170799918938438 0.471604030113657) 3 2404 1
(0.296680450905114 0.170760308392346 0.21821348881349 0.314345751889049) 3 2404 1
(0.0641410048119723 0.216753506567338 0.690802600234747 0.0283028883859427) 3 2404 2
(0.0685615390539168 0.660375101957469 0.231743417680264 0.0393199413083507) 3 2404 2
(0.490979844238614 0.0777549250051354 0.312345013953743 0.118920216802508) 3 2 1
(0.497347186319541 0.192254309542472 0.181033577304328 0.129364926833659) 3 2 1
(0.233406233601268 0.0244644070044179 0.438529398757964 0.303599960636349) 3 2 2
(0.192567201796927 0.139122101478275 0.271052061580122 0.397258635144677) 3 2 2
(0.0728277256712333 0.343152089975774 0.388044465798885 0.195975718554109) 4 4 1
(0.128775943070639 0.0165883521549461 0.034739273600286 0.819896431174129) 4 4 2
(0.0440846034325935 0.514437784440802 0.187508174683885 0.25396943744272) 4 4 2
(0.0640061749145387 0.286509588826442 0.201092405244714 0.448391831014305) 4 605 1
(0.692163907457143 0.0185579168610275 0.238970717880885 0.0503074578009442) 4 605 2
(0.232865690719336 0.157490828074515 0.183532346040027 0.426111135166122) 4 605 2
(0.078089091926813 0.115500956773763 0.536895355675364 0.269514595624059) 4 1205 1
(0.256323257926852 0.687974059022973 0.0384104293770987 0.0172922536730766) 4 1205 1
(0.862189878243953 0.0288487523794174 0.0701972777023918 0.0387640916742378) 4 1205 2
(0.414045897312462 0.256268188357353 0.167829706799235 0.16185620753095) 4 1205 2
(0.0226943735033274 0.331217922735959 0.0768002499826242 0.569287453778089) 4 1805 1
(0.133153978269547 0.507346015423536 0.0913283918052885 0.268171614501628) 4 1805 1
(0.097987852524966 0.616343941073875 0.280392751097679 0.0052754553034799) 4 1805 2
(0.150759757962078 0.483141721226269 0.28094771457836 0.0851508062332928) 4 1805 2
(0.535876506008208 0.0598190962336957 0.25072909286244 0.153575304895656) 4 2405 1
(0.151735179591924 0.541237832047045 0.304596099536886 0.00243088882414533) 4 2405 1
(0.101735810283571 0.103649879340093 0.42037071660161 0.374243593774725) 4 2405 2
(0.104148956947029 0.180591101292509 0.575268453452736 0.139991488307726) 4 2405 2
(0.241871662903564 0.249327379278845 0.246833266224718 0.261967691592872) 4 3 1
(0.0212775552645089 0.646072716917854 0.0820262883789955 0.250623439438641) 4 3 1
(0.463026217650587 0.164116383530217 0.129730201326311 0.243127197492886) 4 3 2
(0.157817904837461 0.0613035173155208 0.263853630516678 0.51702494733034) 5 5 1
(0.461816754192091 0.449736961163592 0.0356720881536719 0.0527741964906454) 5 5 2
(0.0690096006728708 0.391144323628396 0.386434266343712 0.153411809355021) 5 606 1
(0.126545203849673 0.157060645055015 0.460959331132482 0.255434819962829) 5 606 1
(0.00858954200521111 0.39128086855635 0.599620101042091 0.00050948839634701) 5 606 2
(0.330394200515002 0.10263151209802 0.295416973996902 0.271557313390076) 5 1206 1
(0.0722506814636289 0.304230267647646 0.232066888827839 0.391452162060887) 5 1206 1
(0.00227744085714221 0.148936140816659 0.184228958562007 0.664557459764192) 5 1206 2
(0.069627879653126 0.503933037165552 0.143909926060591 0.28252915712073) 5 1206 2
(0.583150188438594 0.112470301799476 0.232564430683858 0.0718150790780711) 5 1806 1
(0.20970389386639 0.0949395154602825 0.0510937501676337 0.644262840505694) 5 1806 1
(0.494896318763494 0.273051540832974 0.128945283591747 0.103106856811784) 5 1806 2
(0.0216398984193802 0.230877487454555 0.40235199732706 0.345130616799005) 5 1806 2
(0.293567445129156 0.632030419073999 0.0600335425697405 0.0143685932271045) 5 2406 1
(0.457591833081096 0.152318847365677 0.169609412550931 0.220479907002295) 5 2406 1
(0.105963645968586 0.508442917838696 0.0861651720479131 0.299428264144804) 5 2406 2
(0.159526272211224 0.00337968952953812 0.362283444963396 0.474810593295842) 5 2406 2
(0.364405969157796 0.330082890111962 0.026948991697291 0.27856214903295) 5 4 1
(0.0634732493199688 0.0970113724469999 0.354767613112926 0.484747765120105) 5 4 2
(0.0396336889825664 0.712980326265102 0.196424772962928 0.0509612117894043) 5 4 2
(0.0875810142606938 0.469117508735486 0.413390610832721 0.0299108661710995) 6 6 1
(0.29625690402461 0.174260220024745 0.51014715898782 0.0193357169628249) 6 6 1
(0.291869124863313 0.0906054670922377 0.534303971566252 0.0832214364781976) 6 6 2
(0.226890130899887 0.377611049450914 0.304125215392539 0.0913736042566598) 6 6 2
(0.228114581201226 0.333771501202147 0.258908786810924 0.179205130785704) 6 607 1
(0.341452369000763 0.0603753980249207 0.0434997547417839 0.554672478232533) 6 607 1
(0.202080490533262 0.182053106836975 0.210988628678029 0.404877773951734) 6 607 2
(0.13790076225996 0.0272556892596223 0.255288062617179 0.579555485863239) 6 1207 1
(0.142343257088214 0.617557633202525 0.147109310608355 0.0929897991009057) 6 1207 1
(0.138809848576784 0.431828905828297 0.428460675757375 0.00090056983754373) 6 1207 2
(0.116206946782768 0.304869773797691 0.359638410620374 0.219284868799167) 6 1207 2
(0.335212962701917 0.15503267897293 0.452062098309411 0.0576922600157426) 6 1807 1
(0.764502183999866 0.0573136406019517 0.00454294076189399 0.173641234636288) 6 1807 2
(0.566237241495401 0.253753018099818 0.0992718818597495 0.0807378585450321) 6 1807 2
(0.0216489522717893 0.0849877037107944 0.480382392648602 0.412980951368814) 6 2407 1
(0.0296265031211078 0.0387681080028385 0.396918252576142 0.534687136299911) 6 2407 2
(0.0998691511340438 0.515369295142609 0.151925823651254 0.232835730072093) 6 2407 2
(0.527263086754826 0.00825781095773132 0.367590799462052 0.0968883028253913) 6 5 1
(0.113238056190304 0.117423957679425 0.243288146797572 0.5260498393327) 6 5 1
(0.460603128187352 0.284924221225086 0.100646023172885 0.153826627414677) 6 5 2
(0.561982937622808 0.278385611251 0.085271262563765 0.0743601885624268) 6 5 2
(0.062508297618445 0.638394030742364 0.143659719265997 0.155437952373194) 7 7 1
(0.455038031097511 0.145585571881379 0.242209778632969 0.157166618388142) 7 7 1
(0.00271585211155656 0.164490806404512 0.492580082733195 0.340213258750737) 7 7 2
(0.368826900608834 0.00580465141683975 0.121258846949788 0.504109601024538) 7 7 2
(0.294023659080267 0.0343497171997963 0.636950338259345 0.0346762854605913) 7 608 1
(0.330593581777066 0.625445148907598 0.0112923434935545 0.0326689258217812) 7 608 1
(0.0976002896204591 0.122559738811106 0.632042986806486 0.147796984761949) 7 608 2
(0.515688110608608 0.17563834041357 0.202514014672498 0.106159534305324) 7 608 2
(0.151766198687255 0.0822141608223274 0.730118858627979 0.0359007818624377) 7 1208 1
(0.344741690438241 0.129185458645223 0.331310065463187 0.194762785453349) 7 1208 1
(0.167314366903156 0.824056323152036 0.0060030114837053 0.00262629846110321) 7 1208 2
(0.129935651551932 0.183407835662365 0.418702026363469 0.267954486422234) 7 1208 2
(0.0746981906704604 0.0948380324989558 0.291074037551881 0.539389739278702) 7 1808 1
(0.425915265921503 0.0324954106472432 0.28420169372111 0.257387629710143) 7 1808 1
(0.263065098784864 0.189576140604916 0.237610350828618 0.309748409781602) 7 1808 2
(0.0861958111636341 0.36724941944703 0.274488454684615 0.272066314704721) 7 1808 2
(0.0892030582763254 0.060233279131353 0.248631112277519 0.601932550314803) 7 2408 1
(0.0299976612441242 0.458275340031832 0.324611457996079 0.187115540727964) 7 2408 1
(0.38613663893193 0.243085503578191 0.038238865789026 0.332538991700853) 7 2408 2
(0.100054236594587 0.0305586829781618 0.814330604393035 0.0550564760342154) 7 2408 2
(0.176896004471909 0.219091619364927 0.233895835932354 0.370116540230811) 7 6 1
(0.164765218738475 0.408215235453095 0.130050366278733 0.296969179529697) 7 6 1
(0.41286805132402 0.203495008870969 0.229557323735207 0.154079616069804) 7 6 2
(0.23437968967484 0.319275553338222 0.198540844023228 0.24780391296371) 7 6 2
(0.230380589608131 0.25436470424755 0.233183435630053 0.282071270514265) 8 8 1
(0.171930834185337 0.398805120959876 0.0437078191898763 0.385556225664911) 8 8 1
(0.209368492010981 0.0337682925164697 0.0511142052710054 0.705749010201544) 8 8 2
(0.614536049310118 0.32947454275562 0.0447748401202397 0.0112145678140223) 8 609 1
(0.371717067901045 0.462623192463058 0.149819565471274 0.015840174164623) 8 609 1
(0.152326934039593 0.288217520341277 0.525878913700574 0.0335766319185564) 8 609 2
(0.1887924564071 0.302451208233833 0.228532234672456 0.280224100686611) 8 609 2
(0.169738166034222 0.0455202287994127 0.753669847268631 0.0310717578977346) 8 1209 1
(0.213579515460879 0.230300573632113 0.037288739811637 0.518831171095371) 8 1209 1
(0.0324922651052475 0.535765971057117 0.3814169317484 0.0503248320892355) 8 1209 2
(0.259636958129704 0.0633960771374405 0.313191768247631 0.363775196485224) 8 1209 2
(0.161196234636009 0.0928768082521855 0.492875075433398 0.253051881678407) 8 1809 1
(0.480381868313998 0.0920077213086188 0.132788348011678 0.294822062365705) 8 1809 1
(0.29519118508324 0.172778193373228 0.14659710554406 0.385433515999472) 8 1809 2
(0.35268963733688 0.0715608103200654 0.493476067204028 0.0822734851390262) 8 1809 2
(0.24605429591611 0.137772426940501 0.116656033322219 0.49951724382117) 8 2409 1
(0.270439710933715 0.223179364576936 0.0209476137533706 0.485433310735979) 8 2409 1
(0.429420597851276 0.141151082701977 0.394763447809964 0.0346648716367823) 8 2409 2
(0.289611794054508 0.0961921256966908 0.572285771835595 0.0419103084132056) 8 2409 2
(0.205609631258956 0.765545584727098 0.0180766377598238 0.0107681462541223) 8 7 1
(0.130767934024337 0.348631649278103 0.00775835197418788 0.512842064723372) 8 7 1
(0.316359698772402 0.227502905298039 0.0607847315259278 0.395352664403632) 8 7 2
(0.0139366211369566 0.357839341275397 0.0430440213531256 0.58518001623452) 8 7 2
(0.256135995965462 0.2322630402632 0.0638774982653558 0.447723465505982) 9 9 1
(0.0791268758475921 0.282754393760108 0.419007503893219 0.219111226499081) 9 9 2
(0.16614815033971 0.460374296177185 0.0638567665591898 0.309620786923915) 9 9 2
(0.400534404907376 0.161363837309172 0.203120814170698 0.234980943612754) 9 610 1
(0.259669976308942 0.233129269909101 0.442903438117368 0.0642973156645894) 9 610 1
(0.101669392548501 0.347065555863082 0.192421000450846 0.358844051137571) 9 610 2
(0.0520063717849552 0.681372846942395 0.25068255234508 0.0159382289275695) 9 610 2
(0.709284584969282 0.174753364175558 0.0559923797845838 0.0599696710705757) 9 1210 1
(0.711150945164263 0.027677652891724 0.196406366303564 0.0647650356404483) 9 1210 1
(0.0421377886086702 0.567485892213881 0.365325693972404 0.0250506252050452) 9 1210 2
(0.252352230250835 0.509817804675549 0.103487492073339 0.134342473000276) 9 1210 2
(0.272590212989599 0.111633183434606 0.499885934405006 0.11589066917079) 9 1810 1
(0.497862944379449 0.394578717183322 0.0662624156102418 0.0412959228269876) 9 1810 1
(0.149891956709325 0.16932380199431 0.418167897965759 0.262616343330606) 9 1810 2
(0.236392530612648 0.0995019720867389 0.177391762379557 0.486713734921057) 9 1810 2
(0.231601166538894 0.364300995133817 0.0474118422716788 0.35668599605561) 9 2410 1
(0.53869294654578 0.330572492443025 0.0547236269339804 0.0760109340772147) 9 2410 1
(0.07892199838534 0.241470473352818 0.106437982060015 0.573169546201827) 9 2410 2
(0.213185966946185 0.0901300292462231 0.609997184947133 0.0866868188604593) 9 2410 2
(0.29310008464382 0.466637452598657 0.218527948949481 0.0217345138080418) 9 8 1
(0.295633819885526 0.389652747660889 0.0665650269948078 0.248148405458778) 9 8 1
(0.298549701925348 0.38714085612447 0.0308628072962165 0.283446634653965) 9 8 2
(0.376829783897872 0.310951874591398 0.246421359013766 0.0657969824969643) 9 8 2
(0.391821925994042 0.240412152837945 0.0286000859923661 0.339165835175646) 10 10 1
(0.251708433497682 0.113216608762748 0.0678950343281031 0.567179923411466) 10 10 1
(0.307921272702531 0.0856119310483257 0.475729824509464 0.13073697173968) 10 10 2
(0.00525703048332971 0.150122792925688 0.261988041922453 0.582632134668529) 10 10 2
(0.190817001741379 0.0555421342141869 0.608524657320237 0.145116206724197) 10 611 1
(0.180123515427112 0.730684043839577 0.0838098013773534 0.00538263935595754) 10 611 1
(0.311443753074855 0.0971747031435371 0.0454996866174057 0.545881857164203) 10 611 2
(0.13149845181033 0.4295799350366 0.0047165770083582 0.434205036144712) 10 611 2
(0.447838071733713 0.234195787459588 0.291652219370032 0.0263139214366674) 10 1211 1
(0.300587361678481 0.193695044610651 0.139755186624823 0.365962407086045) 10 1211 1
(0.11786395823583 0.281799803487957 0.464607677888108 0.135728560388105) 10 1211 2
(0.101099533028901 0.26385917281732 0.102996256202461 0.532045037951319) 10 1211 2
(0.328814262989908 0.534325158689171 0.0114274052903253 0.125433173030595) 10 1811 1
(0.180078054312617 0.0535228187218309 0.157711892388753 0.6086872345768) 10 1811 1
(0.165185419842601 0.182346825487901 0.475027611944825 0.177440142724674) 10 1811 2
(0.367871555499732 0.506820944137871 0.008045750670135 0.117261749692261) 10 1811 2
(0.212101716548204 0.00529899913817646 0.0383402584120713 0.744259025901548) 10 2411 1
(0.243887131102383 0.381985816638917 0.234158088453122 0.139968963805578) 10 2411 1
(0.0859353891573846 0.138081771787252 0.0659021963365376 0.710080642718826) 10 2411 2
(0.499943301547319 0.296544388402261 0.179573147557676 0.0239391624927448) 10 2411 2
(0.341758085414775 0.332248140126463 0.125626646447923 0.200367128010839) 10 9 1
(0.0134274903684787 0.357924868818376 0.0196505561471019 0.608997084666044) 10 9 1
(0.277061357162861 0.285666214767859 0.0495668528601527 0.387705575209127) 10 9 2
(0.210162947885721 0.0171538456342968 0.317566272802651 0.455116933677331) 10 9 2
(0.161712335888298 0.258828097954392 0.510036801919341 0.0694227642379694) 11 11 1
(0.748529801610858 0.219145837705582 0.0299112438224256 0.00241311686113428) 11 11 1
(0.401191590353873 0.0399432322010267 0.533505515661078 0.0253596617840231) 11 11 2
(0.192940954118979 0.0468546813353837 0.56693912064656 0.193265243899077) 11 11 2
(0.440016805194318 0.338520504534221 0.122839681804204 0.098623008467257) 11 612 1
(0.265476237982512 0.216893093660459 0.0117013831623043 0.505929285194725) 11 612 1
(0.682471364270896 0.0999187687411904 0.121523044537759 0.0960868224501546) 11 612 2
(0.232674860395491 0.279190105386078 0.358325181528924 0.129809852689507) 11 612 2
(0.379355838987976 0.0913738277740674 0.446983938571076 0.0822863946668804) 11 1212 1
(0.101121994666755 0.117372701875863 0.635579835157844 0.145925468299538) 11 1212 1
(0.447591580916196 0.485032919794321 0.057219116482885 0.0101563828065978) 11 1212 2
(0.0349078867584466 0.814571785274893 0.139490388333805 0.0110299396328556) 11 1212 2
(0.0390982618555427 0.0468524880707264 0.720951763447366 0.193097486626365) 11 1812 1
(0.466043864842504 0.255989431869239 0.157253279350708 0.120713423937549) 11 1812 1
(0.461249608546495 0.0690504671074427 0.210058204364032 0.25964171998203) 11 1812 2
(0.013276605401188 0.836375794373462 0.075251538772136 0.0750960614532137) 11 1812 2
(0.238393045496195 0.0440447265282274 0.109867720864723 0.607694507110854) 11 2412 1
(0.130356754176319 0.764807431027293 0.0673576593399006 0.0374781554564877) 11 2412 1
(0.549884158186615 0.351642779540279 0.0423491792753339 0.0561238829977724) 11 2412 2
(0.210010413546115 0.665851114317753 0.0357371247373522 0.0884013473987798) 11 2412 2
(0.482383199501811 0.408694645389901 0.0512638641521194 0.0576582909561694) 11 10 1
(0.803594335448041 0.163706715684362 0.0159521857276339 0.0167467631399631) 11 10 1
(0.0943687772378582 0.0530398809350899 0.293749092612416 0.558842249214636) 11 10 2
(0.810949120670577 0.125544867943963 0.0345193836838007 0.0289866277016602) 11 10 2
(0.108320588711666 0.500450431834898 0.281963550020009 0.109265429433427) 12 12 1
(0.527284014038731 0.331872561015194 0.0118545955047011 0.128988829441374) 12 12 1
(0.0436478573829122 0.306202865671357 0.230926378630092 0.419222898315638) 12 12 2
(0.662759899627399 0.0775121874176055 0.147623148281136 0.112104764673859) 12 12 2
(0.112942300736904 0.489013775717486 0.0599603843875042 0.338083539158106) 12 613 1
(0.164083029143512 0.320705690886817 0.315249569248416 0.199961710721254) 12 613 1
(0.189007233828306 0.457809966057539 0.319517020601777 0.0336657795123774) 12 613 2
(0.0415202928707004 0.110768145881593 0.772389927413303 0.0753216338344034) 12 613 2
(0.129592850804329 0.0111820884048884 0.411541526671505 0.447683534119278) 12 1213 1
(0.25976987881586 0.516560914460567 0.0257364790886671 0.197932727634907) 12 1213 1
(0.410570392385125 0.0624357098713517 0.12702187756078 0.399972020182744) 12 1213 2
(0.178207471966743 0.0939801055938005 0.00243785977362449 0.725374562665831) 12 1213 2
(0.412248468026519 0.0263575068674982 0.269835950341074 0.291558074764909) 12 1813 1
(0.0824279347434639 0.412566827144474 0.0773399844765608 0.427665253635502) 12 1813 1
(0.326925213914365 0.148847837466749 0.418670147191733 0.105556801427154) 12 1813 2
(0.200881509110332 0.486902105622011 0.182562847621739 0.129653537645918) 12 1813 2
(0.315605494659394 0.012240172829479 0.563100900035355 0.109053432475772) 12 2413 1
(0.194609991274774 0.415066057816148 0.260069653857499 0.130254297051579) 12 2413 1
(0.153803495224565 0.526209439616641 0.043396117631346 0.276590947527448) 12 2413 2
(0.326443267986178 0.310885414015486 0.30005583865568 0.0626154793426551) 12 2413 2
(0.723689619451766 0.0809189006686187 0.0874986723065352 0.10789280757308) 12 11 1
(0.270590913947683 0.060608298517758 0.294731263071293 0.374069524463266) 12 11 1
(0.0893943700939223 0.547712884377698 0.27729198615998 0.0856007593683995) 12 11 2
(0.029003253206606 0.605794782750311 0.078963490203023 0.28623847384006) 12 11 2
(0.630997112020844 0.0999294333159952 0.040926952380687 0.228146502282473) 13 13 1
(0.404879931826176 0.275122571736558 0.0688489899039269 0.251148506533339) 13 13 1
(0.0476662907749491 0.581490329932418 0.317630519159134 0.0532128601334989) 13 13 2
(0.0736548723653012 0.579118410591033 0.039901646319774 0.307325070723891) 13 13 2
(0.329565229360014 0.0269039440900102 0.0616310196928665 0.581899806857109) 13 614 1
(0.0965383155271411 0.261298631317917 0.0968248243443637 0.545338228810579) 13 614 1
(0.194411970674992 0.109774607699364 0.17262277752161 0.523190644104034) 13 614 2
(0.303640601690859 0.204293686430901 0.44679331127552 0.0452724006027204) 13 614 2
(0.898891013115644 0.076133674010648 0.0107628614641591 0.0142124514095485) 13 1214 1
(0.114504489116371 0.0805558888241466 0.381073117256183 0.4238665048033) 13 1214 1
(0.309323638211936 0.379572580102831 0.0598913528956434 0.25121242878959) 13 1214 2
(0.68005533516407 0.0750972968526185 0.0751156685873822 0.169731699395929) 13 1214 2
(0.257469675969332 0.070994877256453 0.12507817428559 0.546457272488624) 13 1814 1
(0.286802829708904 0.383354569785297 0.27631681179628 0.053525788709519) 13 1814 1
(0.281617742963135 0.116008031181999 0.0371644790284335 0.565209746826432) 13 1814 2
(0.0181231284514068 0.205502057448032 0.385879502166063 0.390495311934499) 13 1814 2
(0.164889432955533 0.255639517679811 0.386283305007958 0.193187744356698) 13 2414 1
(0.320651077199727 0.154456482734531 0.262014971580353 0.262877468485388) 13 2414 1
(0.188533065840602 0.305658751167351 0.295351230539381 0.210456952452666) 13 2414 2
(0.480770334601402 0.235467533580956 0.223036898765713 0.060725233051929) 13 2414 2
(0.30650528660044 0.451831154059619 0.00899061048403413 0.232672948855907) 13 12 1
(0.319517632946382 0.126096888910974 0.128069920931006 0.426315557211638) 13 12 1
(0.169641806744062 0.454128155950445 0.211488944478333 0.16474109282716) 13 12 2
(0.127540698274944 0.0988593823276589 0.17921632155776 0.594383597839637) 13 12 2
(0.225224944762909 0.353236785158503 0.138950199820101 0.282588070258487) 14 14 1
(0.554971538484126 0.194979545660302 0.0124668837524951 0.237582032103077) 14 14 1
(0.163263655267661 0.0873308237642024 0.1505291913636 0.598876329604536) 14 14 2
(0.362513840198533 0.321056635584674 0.206841973122201 0.109587551094592) 14 14 2
(0.228035847656429 0.314358506351705 0.0172142265364575 0.440391419455409) 14 615 1
(0.0897380472160875 0.233076727483412 0.407692662905911 0.269492562394589) 14 615 1
(0.0503312144428492 0.264239632990211 0.629249779507521 0.0561793730594182) 14 615 2
(0.239833841100335 0.296038380824029 0.355974796228122 0.108152981847514) 14 615 2
(0.00692008016631007 0.065772129688394 0.68773875897752 0.239569031167775) 14 1215 1
(0.40922461124137 0.0499676722101811 0.406999100930994 0.133808615617454) 14 1215 1
(0.227192528545856 0.413095003925264 0.303931803908213 0.0557806636206669) 14 1215 2
(0.0540039353072642 0.577348564285785 0.357722478918706 0.010925021488245) 14 1215 2
(0.401642575860023 0.128159657120705 0.172885956708341 0.297311810310931) 14 1815 1
(0.233042769134045 0.0385746690444648 0.31849262723699 0.409889934584501) 14 1815 1
(0.330322200898081 0.595537655521201 0.0219108550809324 0.0522292884997854) 14 1815 2
(0.197154158260673 0.68791368789974 0.0755910775624216 0.0393410762771655) 14 1815 2
(0.193409721832722 0.111981051508337 0.141305379103872 0.553303847555068) 14 2415 1
(0.588376177474856 0.390047116205096 0.00452143698928871 0.0170552693307587) 14 2415 1
(0.34850746486336 0.467699340544636 0.105408576317132 0.0783846182748729) 14 2415 2
(0.139835814014077 0.3434791485779 0.114280539564788 0.402404497843234) 14 2415 2
(0.114006950519976 0.0295835607685163 0.450950074009599 0.405459414701909) 14 13 1
(0.0670501687564343 0.308896242175232 0.60461593605576 0.0194376530125737) 14 13 1
(0.232070244383036 0.194326535798625 0.220529161859304 0.353074057959035) 14 13 2
(0.138519126456241 0.17519492655992 0.22872918844223 0.457556758541609) 14 13 2
(0.431358663830924 0.346058072522274 0.054457301273942 0.168125962372861) 15 15 1
(0.00299684843048054 0.579352950211616 0.317346181720495 0.100304019637408) 15 15 1
(0.0949821383692377 0.601552778854963 0.108456705231217 0.195008377544582) 15 15 2
(0.184434986207634 0.193836989812559 0.0952176791615721 0.526510344818235) 15 616 1
(0.210105180274695 0.208087158855049 0.250950279179963 0.330857381690294) 15 616 1
(0.258705199696124 0.359269922133535 0.134187385905544 0.247837492264798) 15 616 2
(0.314434257335961 0.584451867733151 0.0140365865081597 0.0870772884227287) 15 616 2