/*--------------------------------*- C++ -*----------------------------------*\
  =========                 |
  \\      /  F ield         | OpenFOAM: The Open Source CFD Toolbox
   \\    /   O peration     | Website:  https://openfoam.org
    \\  /    A nd           | Version:  7
     \\/     M anipulation  |
\*---------------------------------------------------------------------------*/
FoamFile
{
    version     2.0;
    format      ascii;
    class       vectorField;
    location    "0/particle/lagrangian/dsmc";
    object      U;
}
// * * * * * * * * * * * * * * * * * * * * * * * * * * * * * * * * * * * * * //


7342
(
(141.3384550914 -614.838916975597 -365.643737227399)
(446.189670896842 -278.260639238406 179.723390286415)
(17.6585264865291 -93.5676663639939 -247.635212988745)
(-685.064752737176 -200.011673750837 -588.63413518214)
(193.16423880062 -115.144975679042 -541.677962229306)
(-112.14039362002 -18.5931168761738 -399.952342616765)
(301.091688857723 -408.577836733855 -240.426789902944)
(-68.9806256303735 584.871514258338 267.710396505653)
(235.40828549887 -242.152365855168 559.020344938274)
(409.401581187769 201.88549358258 -1012.10160147948)
(205.314915065955 -527.289299946058 290.410000441618)
(294.228333266731 355.371107555461 -590.074065588583)
(-205.14294215788 170.26564509963 -664.153064343673)
(96.0502789901275 -144.948444178688 -669.747591304115)
(-1226.3209872494 1126.51472012156 -124.963577632177)
(-513.512635096125 -349.209695108055 -519.752597872933)
(-699.012227685987 -29.4706262623842 188.169195378542)
(-456.191233178089 -260.586178185318 -121.056317440311)
(-305.099325058519 -128.523592628058 -250.691038232874)
(-752.106840362067 85.9603876199395 337.912022256059)
(-279.659831141354 78.8401007958075 -406.038606661367)
(-399.953441585312 655.156954612811 137.075110848592)
(544.24920287663 334.33715104215 -126.133860761039)
(139.084717534916 -260.899026269916 42.7704644864455)
(740.26526176243 583.456238574635 421.304350806533)
(-214.360117766964 234.633096634057 -877.538029659932)
(-713.210120009386 -141.973984704174 63.663778389908)
(762.173577587072 333.407247533228 -44.7859610261677)
(64.9230054257763 -795.205535975101 -1033.43660950217)
(-1109.35150302796 -29.1890440724293 133.394276772529)
(-292.922745937274 670.732171033772 60.3054144693042)
(104.180041201373 -302.305428309988 -1096.22657509234)
(-589.876983018016 -204.657162711838 800.868244481246)
(714.743168156285 823.884857371245 123.485162187403)
(-695.751696217999 -202.119922698357 84.2312405261939)
(-142.211544040332 57.9142335320723 -473.077246817573)
(559.613836260353 123.737037617467 79.6763212689579)
(565.133466765125 -388.07102204739 -502.631000011518)
(-374.449399212582 -101.996126882968 911.533320523978)
(-79.7246735462255 453.962515288781 -41.0440637446331)
(-816.053271426143 -354.209271624322 -18.9077211585785)
(-44.3057109389885 271.822493109262 337.362058867227)
(384.485303198226 353.525717474477 -427.666847198836)
(-60.3141851747064 460.196727729508 804.146108339119)
(-683.615355206497 931.201217616532 -206.795253485953)
(-610.766210733653 -358.584171843601 217.511554439247)
(-330.451955774845 132.391914447939 944.138093570461)
(-540.978457576195 -118.315473272424 -649.015831540303)
(-557.966505637876 504.520702783011 -323.90385760627)
(-413.860809642656 555.006338901825 81.564346674603)
(-358.861273457882 -501.630695426419 -952.121165478161)
(-331.361370664622 616.067637117146 -137.808937407481)
(94.0421802968677 202.512055271153 -324.612883538268)
(-330.232145841552 560.473452819065 -239.186459699258)
(-1376.42350481705 481.546550381038 247.180047399096)
(-729.469197007779 -410.852594826439 -415.526625199338)
(555.070601328593 188.379946244691 65.1891803103989)
(85.6110082581594 1131.83386368815 -43.4139865239095)
(501.359821187941 367.544194890442 -474.622193875665)
(390.538531196798 -53.9188800773765 -215.83694648878)
(-680.813205148793 771.686430799862 92.3386068224873)
(-879.424638274951 -504.336733237083 257.432835058831)
(760.225674453117 -654.097632067817 817.165640021192)
(-386.491971692817 -267.153085291637 663.999164881164)
(25.7052236857489 601.166898846994 917.951348710056)
(-599.842848907377 405.960109424345 572.246421310499)
(-82.6615820993681 -371.95521096853 -293.888381636477)
(56.683898628264 183.775685197944 -4.44388208179706)
(25.3156547399591 -12.5197316480759 -91.0133433590161)
(-1025.75676192579 -199.8024558024 -369.377066293515)
(-597.43526557039 -194.700057600332 282.579539246092)
(445.061493387107 20.2425392206483 -325.711113110135)
(324.762184354381 259.461777913108 -735.598554166842)
(-265.764691598421 -386.455001743128 -580.597563367118)
(706.772707280194 25.505304486553 759.403370426747)
(-146.417277129524 -34.9169841024844 556.938394517941)
(-134.381963281143 -177.317966971224 383.872282731745)
(-327.877946026358 618.924772219349 -655.594963723485)
(-161.722189345579 226.483062820002 285.766619405356)
(55.893200711491 -701.836628653181 457.135618057605)
(-564.911834373719 936.117825542427 -206.912464612512)
(496.077453585464 105.656004420655 -643.926587410259)
(63.0417000540954 -257.451892815361 -1202.58055211122)
(-563.547770266405 -277.945710513101 -496.2466784897)
(947.426874189714 -257.67863069795 357.563206701013)
(-94.5915993261133 360.757992608073 104.738807260453)
(-358.651556372327 141.127810120009 303.361783802612)
(249.894504535509 17.0288197519772 -56.9687697750811)
(4.12291742190019 332.384120458279 82.0483286995975)
(-65.6821219275065 433.49252580018 161.22580856421)
(-1061.21527035955 96.9595213319447 -508.92711703793)
(1090.57541130612 905.135859312167 -426.622540399926)
(-47.0248127984214 -3.21635485122368 64.4219235027178)
(-671.424019735216 -188.873919611195 -481.415225624542)
(-362.330764225328 -111.086752421665 -524.757419147527)
(316.497945144171 -432.509970525129 -677.412856724441)
(890.590472578795 331.60810057265 670.455871578368)
(-1185.45368108765 150.487200750796 192.760389412283)
(216.776498636135 817.070092852407 -479.500985973921)
(-420.606566398388 -1218.50897255353 80.2692393950024)
(391.621060424958 182.857480773557 546.385917512034)
(204.473206770075 -520.688450995255 -306.921070884349)
(-802.399666782342 195.875793961714 -103.75639832808)
(703.907383019856 139.701675139087 1098.43351652372)
(476.185374991995 -345.277785103096 385.425327523501)
(415.847950737535 -45.1495981835043 851.829944456785)
(-677.737389029288 735.197796169968 -409.526285417092)
(-550.282428361772 156.246253789438 525.761670140201)
(-205.639699194067 -300.237982488395 -602.382876311594)
(-623.827749379334 -320.412458613959 -654.074489840386)
(508.41756817653 21.8420486613805 -725.271641043023)
(3.99190645846574 -154.853549110791 206.320437303179)
(-458.18778344518 44.3232755586142 -423.138931098324)
(569.589159513602 309.746451333764 -814.810712151073)
(974.649135733051 301.88731122854 -582.776927004526)
(-233.38367299397 1262.66388558942 -250.734934446195)
(-104.355590839175 -395.212200714755 -303.418817222736)
(-214.066752904908 162.965075168501 177.038344143253)
(-403.855915880299 274.105505997231 133.57110292085)
(325.670097543387 37.625638627179 -722.191158212231)
(-755.796037527628 121.912219190317 -595.866089290307)
(-352.031542948954 -134.424850220718 792.893246245651)
(-367.776906255101 104.863273434826 1127.05256574616)
(-562.602425558496 -34.203999380946 -224.859550202512)
(-995.028277951506 163.42845342469 -332.435528748902)
(-1215.83062704448 801.16343155689 -105.000198059804)
(-184.401089520056 15.0121013471183 -111.506890042842)
(-93.5999298001892 -575.155824934976 -412.037020324641)
(1345.40288012789 -100.722078667465 -106.822343161109)
(-781.593059920654 516.14468969353 1344.07098948527)
(397.075893277255 674.264811051085 -26.8914295427298)
(1122.06065604262 930.600620748193 826.735574697772)
(136.72323514994 -316.02526624733 701.180573002202)
(-37.2868098618324 128.443964870237 -422.470660253248)
(383.58532498605 146.366785591021 -473.396869356893)
(-148.986433139579 -317.03084025933 -285.293694264708)
(-218.082491199649 162.533534127733 -121.744215051831)
(-281.836671559168 -355.089639552819 490.246402500424)
(198.379745839406 -721.36797359739 21.6824713662957)
(0.832405988828317 176.588772306169 247.769272045221)
(328.542281851345 -549.225854050339 -521.597764810153)
(-119.055821618283 1205.04046650573 534.076722505853)
(-358.068285888799 804.935191345322 -186.473223567618)
(404.075512447034 179.966969209971 -941.825678693122)
(-501.840316671336 466.649181670672 311.167508976444)
(-282.118524406293 -150.804057420348 -506.266711359795)
(539.497705880382 -197.065413763296 -246.038449199962)
(453.748623117969 -434.731390885582 438.469200297846)
(710.05325823177 -227.5667666779 90.7655101378011)
(393.108989027884 906.399766009979 50.3434951043909)
(724.761637071511 569.945833166895 -151.676384233807)
(331.914719455842 -187.17071809002 -186.970910061703)
(-1317.40059210812 294.486872242824 494.268530496231)
(-158.80597875015 568.358333851297 92.8157635329562)
(-605.575940527822 455.976657050887 -1232.54526295497)
(1348.37410319141 -567.10617311531 181.098223303272)
(-359.688161123388 66.4559989926297 773.559646146723)
(697.901170682747 758.809777447809 653.054053657268)
(122.187295839623 349.267618821181 -1128.37116364545)
(-518.469968218626 -648.616745342396 125.244579369175)
(-90.0775303616649 -502.18576009982 167.583142670029)
(251.648551727262 160.823231521462 750.211536292991)
(63.3482996801679 1658.52996356099 219.945504018489)
(-597.253043136561 260.748114340598 -209.62091735654)
(305.223225299788 -307.587273347234 265.335798387671)
(519.282095410031 -338.118077417038 -356.637909648626)
(-184.330103100605 -720.881267617361 390.883828677682)
(-400.064237595845 949.248091241523 462.025215918759)
(148.365437444473 -1006.11859746274 -698.742838864116)
(-83.1305232889345 690.362561518545 -696.380180483854)
(-3.34757179036608 230.984182506782 271.208145415971)
(-12.4028343132533 -772.149909717905 1258.46489809411)
(-190.364524066172 449.387652566062 -190.508274268113)
(-1.17236552784076 290.456417382671 404.018477985736)
(482.564137743881 -654.905996509671 384.501681537427)
(316.845896549827 573.235781714146 1121.0377390652)
(-98.2400523583704 677.20317161804 65.7771234355131)
(490.717234475817 -57.1810896596805 496.02301029618)
(-33.373951677374 116.139201696696 -367.224613381425)
(-43.143577105682 20.5132526321733 635.661149162942)
(-650.881805205375 -684.141360820471 -939.15870784276)
(-1192.00575747351 -185.882221342943 -48.8724426819859)
(-604.556415823828 -32.2301747279377 551.995146880916)
(337.520229318425 30.6917377209513 -574.325425004564)
(-797.652047873914 -1338.17012755132 665.0586415197)
(-85.634868099798 -262.023968067808 -589.33911998832)
(1185.88803893295 231.861531587111 -106.695772943478)
(-19.1718646928712 -280.497666404117 -312.594633545573)
(-947.249438096931 -750.904236349441 -61.0675415885471)
(-119.984984833111 72.4304942371632 -301.777685913794)
(178.491673667336 426.405840901627 -253.974567296601)
(-548.63830822545 -1048.85346396015 -345.290429917261)
(-52.8967449221619 823.386499506559 117.219933060763)
(73.305516564105 161.477743108908 -43.7435574992516)
(426.636056171118 815.070924822171 -8.77311784498293)
(264.68824212163 2.8265835893246 -93.402520317982)
(-148.608164729488 563.228461545359 -777.035309786972)
(-649.383209067635 108.177304385479 -689.179775287744)
(-57.720113677477 321.162349348669 -113.964101510703)
(-258.84780892482 94.7357176100156 450.702554330158)
(-399.874286300711 -87.3882753628745 123.781626618344)
(-414.603503314039 47.1540413203684 -160.133419312942)
(-507.181855195382 531.073539689323 557.219481253818)
(-37.3074831328705 -899.263835082294 397.805264284859)
(1041.02551009443 384.038283246095 682.974439900722)
(436.74501541619 -126.507119521382 -36.5409190191762)
(375.168817141696 130.380761981461 464.621849765794)
(-165.242199298479 -439.571208988622 -204.047083352153)
(354.193445833641 395.943605692637 -203.925486945136)
(362.131054924879 -1073.72480614435 248.478924686168)
(-267.305935157967 649.913203992749 -371.363307769562)
(172.233615570319 502.547762134679 -291.926640341853)
(318.398508131311 123.631028636367 -436.074306043629)
(-603.910441365228 -240.571008329305 -111.285167084098)
(145.578161195891 310.588342780947 -569.002897148428)
(-213.168539066347 -307.129630988294 207.603348011881)
(261.174291988882 150.711659008161 -417.166757201624)
(283.608738883101 -966.322889434563 434.522885789395)
(33.8833303596332 -582.566624267728 196.217010641728)
(581.59092021155 807.525479457132 1295.06496594694)
(610.205461495075 487.939395383754 -373.303861749994)
(-166.583696224802 -686.042106166973 107.515614708791)
(18.6457565743645 -936.11663325577 360.169111376659)
(-645.028108238602 216.85771124168 280.199738946314)
(302.513242825907 -402.137808172072 909.149131699751)
(-409.250793212986 1001.22045940364 -32.3553715827345)
(236.499479116117 12.8183202376736 632.50976185568)
(1184.96294403355 660.523337453374 268.695641038435)
(-99.2329231342143 -208.63048911383 783.208936029383)
(61.7243866141897 -459.376444034911 -229.567099204993)
(-336.396303676513 476.259905884733 349.831431000107)
(-657.236795488572 192.076144009914 21.9230206708303)
(1089.35941494726 86.9850239238371 -275.447175140381)
(149.0451182485 360.142427061348 -990.572373911842)
(411.38135138973 236.554445808009 275.53101822652)
(752.542316609123 -826.918120696476 -391.30813032805)
(18.6360490504472 -527.740864495819 232.528076265818)
(-184.649175403996 -637.359645250134 591.598566827183)
(-404.758598961261 -251.318859624754 1119.1892406956)
(654.798484543228 -274.44025645559 -256.686911529622)
(-721.1459612163 -247.382961500859 -788.429857609273)
(-403.650119304216 -127.462215241008 -48.4759618973362)
(23.2825286324857 -161.759669369723 354.096731708736)
(186.739036993156 385.020901257307 -270.736839823475)
(-688.541117970025 -38.5701313782897 3.91996129976472)
(-196.39805810513 52.38920044835 1660.20709482887)
(587.186022065668 384.26709976409 707.849927859251)
(-423.856812705926 575.583830472618 -231.807985082671)
(-832.770810590049 841.297427152786 -978.444009432145)
(-157.57962563511 9.71270801072645 -1107.48310467249)
(1065.3358528033 -519.395413380629 -588.883042006469)
(-291.866669469738 457.356801328809 669.518177262262)
(460.746042959848 161.394899910235 19.8043426464446)
(1213.19573809076 280.571017031976 362.569431238614)
(72.3546272708235 -662.473907230682 718.370663189702)
(46.3145330454022 -371.192116894122 898.913548808902)
(316.772448155382 166.87987173247 321.268911180246)
(-132.015198647177 861.764909157462 1085.9321640783)
(47.3133533559808 -704.928969303762 -90.3057778862097)
(411.172779538171 -610.224861584899 750.60479007675)
(-273.92142837767 225.604177500648 -816.246701187655)
(795.829533811239 1409.47771661407 148.239167571443)
(-157.273081104802 493.279220307103 958.047602081699)
(-60.0509717458785 -303.92129399637 -366.869828044999)
(197.506445714526 -148.067885233743 -613.427679959031)
(-576.239297820741 -163.69016974622 628.020370847754)
(-8.1822206570016 366.872931433025 -1103.18500726655)
(-834.530917954532 -374.179720566689 -334.675918393799)
(70.5283307170918 697.566442797804 560.968189637494)
(18.0035126749427 135.92490432503 -200.891011042482)
(200.789273054515 107.091780601284 -555.040002001119)
(63.8940557272441 227.120594092821 768.717681350176)
(785.838214281309 -308.680821427498 284.248663328311)
(-131.109738105973 -2.05217071495072 -704.328412779187)
(415.70206706125 795.90261921071 124.683321080068)
(-20.3032404308031 336.580584207065 550.441594241198)
(429.870925619592 -708.187269077998 -361.468321145232)
(-660.103755865747 325.91325201638 560.196097872535)
(278.384107460054 710.318780114031 -0.402907267051185)
(-156.150122883169 96.248193678778 435.93812072317)
(135.497674143251 741.973672747385 339.997995393205)
(-162.325323870269 -80.7794291516676 -408.698479550419)
(-350.899379326366 -278.829654335796 -608.736533667257)
(-24.7994589788801 -1250.35632989045 -137.680100034602)
(18.791541940385 -1172.45579477988 571.856373266237)
(-73.7444980725489 -110.130379673258 67.7286960277947)
(-294.259216821186 939.173634917929 374.067739750675)
(-577.095545648191 -465.092791677113 518.144472097773)
(-395.772439135931 -232.996281752153 110.688757234039)
(-268.500323644437 -690.662585433383 -553.996337354512)
(208.731969608463 -379.20601791332 -295.000212971161)
(-165.19482733072 446.212522720372 -374.74830118765)
(508.875998238652 705.863935946067 281.119432697079)
(228.207021036188 323.535155519407 345.21199339448)
(588.299511078586 887.572136207429 592.772002690491)
(216.816412470313 -87.037048723325 97.7803338899737)
(506.772575095039 -704.893479347511 582.661230166019)
(599.313672943545 -403.581998025769 289.243117438308)
(173.474120111079 -334.968175483218 23.6640713305926)
(-381.316144246263 -200.885277571224 174.821502361874)
(-328.074272452753 803.213074516717 -131.576254720666)
(442.417924064383 22.42986666673 411.493967770301)
(47.0026002760224 -411.109884670208 -130.212978135562)
(78.9913792819898 209.276443356185 170.08221081144)
(377.04406351391 369.102067060459 757.413580407304)
(-1206.13406580552 195.427740404805 -1103.37880161156)
(-114.269565399751 -618.473665098268 437.203120704621)
(-960.368435801115 -161.965152047978 4.20148252326108)
(-10.7109740616263 -462.077600044029 -380.85872796992)
(-275.61731429876 631.617729011667 -537.150818453506)
(-288.458763884327 -27.7861606288436 -827.190650833662)
(240.403901386663 804.406639107317 860.19126377392)
(-538.69658458876 179.031941667488 -1232.81173109421)
(318.202464424505 -199.51317210124 219.288106841083)
(-327.30772794455 -57.0343215395026 78.6980779739166)
(-384.526661286986 627.15703044158 888.749806382208)
(620.399313401595 34.7723311090392 346.328796200266)
(73.7546868072238 -252.968121981803 704.665353375756)
(-245.030029929381 385.941763404096 -678.777343429975)
(-819.509538927902 152.478531665739 -408.757513164465)
(-248.43270204349 150.719685513869 -353.459531691887)
(-293.231780055887 531.866933183667 -387.741354301678)
(52.0410714477254 334.173453296481 279.073667727925)
(-90.8934724854077 -362.403149430625 760.794202663155)
(188.95425428806 -393.178691730163 343.504340232448)
(-745.277319120794 -512.440575880882 -167.993658211433)
(-51.3070428923855 111.308244802862 64.0705326870299)
(52.6246502342506 -368.108532767024 -112.5552051056)
(417.364762612151 -38.3246774414973 199.488243547334)
(-155.689823139917 326.449336124246 -287.282721138786)
(-85.999543546261 -1231.62996670947 -407.69333125973)
(527.886726042666 -503.390607827876 265.1844385279)
(214.976880554248 -743.994147033764 253.023030050312)
(-416.26269602721 -378.153305690155 506.985157930021)
(-575.493989094394 633.560560563465 -466.25762626437)
(-914.993168419571 -99.668371174964 85.9993294837582)
(-235.712658116081 -249.920769383458 849.885832258354)
(1132.57833755679 -337.131657800405 169.008994528777)
(-379.574897983551 626.150542955954 273.495160052638)
(361.976120759898 322.839098336294 1101.29115046437)
(-85.0694693204593 150.764822294287 -790.021029258091)
(-297.751398501988 -500.435220464799 -65.9513340459551)
(-127.155622850555 438.172425721238 -738.42310881034)
(-687.186806458561 41.5016420137195 739.533619395099)
(489.257327484287 875.810444318676 -776.258095219879)
(-75.6966498508789 -345.85632844536 591.960899736237)
(-573.879111582523 -720.593234362005 -1115.2126985772)
(-549.456860806952 1062.54516065193 -545.068266140278)
(-318.667218590764 495.823715870155 -1019.61454365552)
(-180.012276968355 -461.045660379761 -348.805740926834)
(-608.720775726027 -85.6982527863833 -387.066673117067)
(-243.249100438142 1103.949961228 531.345689345725)
(-630.339961491166 729.848212694069 -500.308076165182)
(352.314925515034 396.783105827351 272.178123020808)
(88.3315282435233 -87.3085503499056 1190.10957279081)
(415.671814725665 -63.5275984084927 -678.982099763527)
(1280.09278687278 162.491401699993 -387.326500412772)
(423.656960724113 197.082693255195 -59.6723106012967)
(-388.109562775073 -105.640464595009 -144.330132230343)
(-59.9996219386209 -153.132013195683 59.8267130446594)
(-58.7943986373868 386.817863659826 -912.418500822664)
(336.574601265078 -90.1665180043123 -743.071077378479)
(-66.5375054551505 464.046055619809 -931.836399831919)
(-608.544907190615 98.7703834797849 236.496901735203)
(-384.289152070014 231.901567943744 207.292116205458)
(-864.338954577078 -245.794918988954 -480.904792406609)
(500.742784358213 369.362016646066 472.933902847077)
(352.550691780264 -95.3366988856987 -883.318129118002)
(-694.963940372799 -45.8970659273326 185.97455601594)
(360.843931625986 1076.57943256205 216.7751253211)
(183.469567268966 432.67314976431 -823.36266715362)
(-292.511559531567 241.869067437899 341.642255228892)
(188.309996771852 -717.44726669188 -291.746223618531)
(176.547231460695 84.1495572339785 664.657324856819)
(-406.178953778162 168.884289575643 -376.471394708727)
(434.117074850992 -261.81138268803 465.582542072626)
(31.221545001258 18.3894717908806 -515.705215989713)
(-310.651110714443 494.485299130898 -520.454298234971)
(220.112675374468 466.443649225981 -1048.24553677012)
(627.440472473077 -219.289351627592 440.708475306995)
(667.677839234692 598.48221996897 -946.083788381737)
(594.089585312687 -23.757287376473 -291.589565064906)
(-39.2457806520765 -174.190362526761 -346.73547185283)
(25.9974165320924 -53.961155627454 520.185189069093)
(309.175141555613 -346.154915029964 -616.221320221263)
(-141.124196605136 -563.28482937414 171.44444992991)
(-299.40590255922 47.8038799093513 -352.870473612209)
(517.368249088239 965.727234222677 -1002.99167983409)
(321.670772004695 22.5571587098468 -418.373302894086)
(8.51165564931997 417.131125611683 -288.854457600965)
(-217.96434583866 78.9425632184732 218.299428388925)
(-401.978861279095 207.988146222897 1467.41428982324)
(858.616117991501 263.625375741988 -474.243997739726)
(28.7311224411074 333.192893698431 205.335098442975)
(615.241247430546 -276.089470102266 -930.607489340158)
(-63.776719067188 -243.693335485818 303.237145632978)
(-571.187846760636 -141.977620099047 368.316275183648)
(-1202.70006710956 404.584829535898 124.324550379986)
(-416.071700858693 11.4931364392515 -296.682509363137)
(-575.333896467785 122.506498760298 -702.409589798001)
(376.934256435844 355.964179765713 -166.767989226489)
(574.192625337632 -12.2876205565637 132.566128428846)
(-296.939190659695 403.60996435547 -409.291660345794)
(764.144454192817 -985.240539181914 -771.990965028116)
(730.427723119712 -871.572237423053 -466.037908393786)
(-94.9678936467719 -558.441926835039 313.411977194941)
(-474.135468474829 -234.931845599197 161.050476668761)
(2047.69314403715 413.293472122884 279.024109232302)
(40.5210382996384 -442.205115470263 365.030319905324)
(-290.328409714014 86.1973135282505 64.6748798697013)
(200.150150487923 -1112.14171303483 -697.979951490288)
(-940.240067034094 458.265217219122 -98.1114726740122)
(-380.494821176078 397.296398036502 354.873615264481)
(975.8468372072 -721.932510181854 395.731642694601)
(430.158144346302 -355.581113267182 -145.001206468855)
(-492.029381074589 -263.312409652036 -372.105604551088)
(218.325587587326 -938.480688243922 -62.6192979281626)
(-583.177057782544 213.945643302462 262.734486312998)
(-15.412275826932 -357.05867119726 -809.94286906731)
(-903.620469222054 -465.971596185999 -851.031241587768)
(727.354326884982 -961.615002601783 -1414.69678454347)
(-427.646007117788 76.9099201922886 38.3845476149408)
(-784.945836448399 845.96799598254 -220.081207763314)
(642.570820666776 516.724581124437 -803.918209630055)
(237.139313765209 -87.6546091508011 652.949821467379)
(-403.781127045691 -155.751892240251 -36.4467327291369)
(-439.602461786605 3.67157613670974 -109.971526698705)
(-68.9132634184474 -299.710877742513 714.521813655006)
(-460.626079555281 -963.604715656591 -408.149634752154)
(782.09852848513 211.403827531767 -165.024821276058)
(343.580442800082 -204.881597624443 -694.007358970037)
(164.717240600871 79.0262369055609 573.932074108933)
(-948.405869506881 305.663269639655 -570.313762910056)
(-30.2131271122184 -35.3591582883598 -724.976260600272)
(-638.977885049404 -339.868361254311 -363.591486532294)
(215.554426864141 -645.865295720571 -103.239903231463)
(532.065607300758 360.976566982848 -297.956094229202)
(-289.659900920039 -185.94471501032 -261.977498970499)
(-12.3794944173458 -644.463510732726 -551.238632736062)
(-218.914043279604 386.349667419599 -326.653057763899)
(-197.141673601203 260.320397580429 -36.1513317476015)
(248.908025009998 -609.23609742916 69.5845239921978)
(-29.1994912533741 309.185862502265 -1190.36496395088)
(-777.148094075471 -328.747775691278 137.279818883194)
(1067.67450883937 -102.972722107435 -51.8530920543586)
(-898.884663016378 -693.486303502716 65.0883680877446)
(-1069.9513637427 -676.646810117507 -282.841230864162)
(423.595084654371 -702.625934817691 62.9097388027355)
(-733.386851063772 431.669727196972 -745.122916456756)
(-364.371812247431 -96.439864122658 371.749358424613)
(143.909773695048 19.1421385693696 -316.415978537381)
(-76.9829556361945 3.56910806708667 653.477193854847)
(167.680400119702 779.037986711901 615.890161471885)
(-144.646215654429 670.214932197045 678.121050779772)
(636.777067360159 391.018690091435 639.141633983644)
(-270.175540945023 397.311188388811 1540.88783924708)
(-642.254697516492 -22.8801454477549 -155.816935663567)
(503.281334248606 -176.035930887799 -276.91221740567)
(-119.846941784758 651.771769671438 -727.770892312287)
(-268.894826122086 -279.335610657647 621.697518544141)
(443.293238855009 930.335819885227 94.2209401090136)
(-8.53857421686427 880.399695549171 395.998264773513)
(444.575298282778 -723.208587469186 98.2479022879828)
(690.133016203074 709.825147170695 399.139187547504)
(365.50200446427 -266.421635075601 -117.60513825003)
(1241.88783549535 -555.69240839669 178.958139798383)
(-98.506687936195 569.256795500598 -300.05315542516)
(1303.03721425155 923.93061993993 637.390672129475)
(26.3115292117675 -286.9132937206 -236.830564504904)
(-1075.83805483486 -962.200454353464 253.802256958522)
(225.004394390423 -236.019804027667 187.39957437945)
(100.317017865182 991.904411787441 346.710350513713)
(-825.111338116631 276.741370994095 -262.859404272935)
(518.412401459163 -565.112349548644 -417.360443043904)
(-161.997069355477 872.264273643139 732.645255481753)
(-212.12230449618 369.896530127545 357.812856298784)
(-710.150465982558 558.898367382649 -7.25084948866448)
(112.001978742345 456.410365054824 743.954580183737)
(427.126584397434 -534.033976103355 -121.119228404365)
(-180.90429169584 -481.89379826913 -493.87048436507)
(663.1447310655 239.193301527344 250.896856260446)
(-1483.7764307623 -1283.11662907615 -504.118764921978)
(-502.987196339259 -210.416757767717 -386.347413200825)
(328.256400008366 649.948308947894 -414.891178726902)
(-95.8093278628933 -383.973456615169 -409.441372889739)
(-577.235138588658 -498.254645764026 60.8667506449977)
(194.948500379303 424.884497244003 -897.602913870419)
(580.907190758931 -1086.70590572513 372.876122461228)
(-69.0094096212969 -838.083127797181 717.157163998358)
(-672.339460207142 -364.805007837981 443.109169265581)
(-42.8705953926439 -1.49202134595704 -235.856173146103)
(-66.9266254541766 -172.815051027355 621.615218613844)
(242.312466857547 -43.2973330472102 1119.4309288374)
(-209.810912073749 -85.2715648111583 571.371746404562)
(-257.269136644753 -140.933034172813 491.1014861895)
(-596.425047028609 270.168330098033 -186.106882824712)
(-697.794489749723 -540.907461391282 -564.842374884808)
(-92.5431727195452 -1075.24668493405 -912.996101183987)
(-295.9766830816 106.002496916151 -212.852299834582)
(-80.5055734670907 33.3636968391716 -987.49401203328)
(130.08590274895 450.087049723009 118.98054010383)
(-539.510231381988 164.034402234743 105.518583680999)
(-461.445250222739 394.219628675258 -954.78646426555)
(205.296406722607 -259.354835967938 140.886784677686)
(838.489834820596 -60.5858975083365 -709.04357740578)
(163.79394842698 -180.979430810495 117.495326405037)
(361.522355454451 546.95134845976 -90.3505988111002)
(-236.487982577628 139.911488338248 194.529624197839)
(-378.320621323377 411.862444252875 300.566423303531)
(1315.50679438889 -348.656187522207 507.266869851519)
(-300.624546572292 38.9341147430344 -724.054341445539)
(346.092555410001 347.985769952643 941.166618649073)
(-855.063219343219 -481.507970235974 308.658293848842)
(-752.036009676651 -214.411305708631 346.333077532401)
(210.340780587152 -671.569337234595 -63.6660048702232)
(-582.813618136257 -921.673346432912 -204.521661673308)
(114.340121202954 -155.767888052707 -32.4904470904368)
(-858.509568342432 47.7836777258983 -204.355132868111)
(-944.836763773785 -286.257369870209 1357.74164225634)
(-343.47318462232 280.078230253438 520.280457720333)
(-550.643006009903 305.626282459941 73.8334798912858)
(45.5226192069716 -830.255965838381 474.10493618791)
(-307.218242671705 -357.12121035881 338.565099085126)
(557.746322884989 390.45436335233 -263.96389751622)
(7.71393869313252 -605.256047936043 -339.507106049011)
(-173.862733018124 -580.460926502956 135.146241110632)
(-45.6733866012084 46.7559574898094 -333.836602468407)
(367.550285661108 -398.514895900129 470.545471595415)
(213.887152336727 400.649046057927 774.014365999052)
(-644.844033982317 742.641321022281 -781.362749952702)
(-1274.84442654666 -546.469155907122 266.313989119839)
(312.102666839391 694.545119652206 -502.882363518418)
(193.641908196525 -224.877449179489 -178.872455198565)
(-652.12498948289 8.53219055006221 -501.738776932638)
(643.264175536162 760.269513118443 -703.069955015048)
(-1277.89477453891 -582.888591174316 254.880421926125)
(-150.390211351009 1388.24434722737 161.666428032336)
(-161.360523945591 262.786058485607 -1005.0644861196)
(-854.446556113609 -369.706441534199 272.576488499811)
(-104.902569098874 68.6912708084461 -52.8058780749788)
(48.9621141966693 257.107559510113 94.913036304931)
(-785.934966385999 -484.523949354198 -170.125104584854)