/*--------------------------------*- C++ -*----------------------------------*\
  =========                 |
  \\      /  F ield         | OpenFOAM: The Open Source CFD Toolbox
   \\    /   O peration     | Website:  https://openfoam.org
    \\  /    A nd           | Version:  7
     \\/     M anipulation  |
\*---------------------------------------------------------------------------*/
FoamFile
{
    version     2.0;
    format      ascii;
    class       scalarField;
    location    "0/lagrangian/dsmc";
    object      Ei;
}
// * * * * * * * * * * * * * * * * * * * * * * * * * * * * * * * * * * * * * //


5220
(
2.22186559484256e-22
6.42850687888844e-21
7.35979069339837e-22
3.64266000311696e-22
5.87508652260121e-21
1.11480373691979e-21
4.68295411670819e-21
1.25776026727534e-21
8.18741526980512e-22
1.40798560371939e-21
4.2411861127476e-21
6.59307716988353e-21
5.76901844055117e-21
1.23215315297067e-21
2.590555753051e-21
1.56942121206241e-22
9.06952234166719e-23
3.65707913178778e-21
9.98425342695729e-22
1.91784385981323e-22
1.3239712514483e-21
2.63051536468074e-22
2.94538119870682e-22
1.7490444384281e-22
1.68722545889087e-21
8.38338750872452e-22
3.28972186784757e-21
1.75545572225322e-21
4.22481108292041e-21
1.45835691497912e-20
3.10862685110555e-21
5.68146638735049e-21
1.56396043822506e-20
1.22109523525335e-20
1.14995604555886e-21
1.5764971099377e-21
4.62008153438974e-22
1.32467777119131e-20
3.82071234457375e-21
6.47476007644349e-21
6.39074318010982e-21
1.21840515857192e-20
5.77944790474529e-21
7.68422462660512e-21
2.56054343814331e-22
1.71290482197772e-21
1.51333587819128e-21
1.52111038096635e-21
3.29304585251494e-21
1.12256473387882e-21
9.70155954143644e-21
9.21454270544004e-21
5.27479315745183e-21
8.79615866739355e-21
2.01433288565795e-21
5.95869750808484e-21
1.89553501787833e-21
8.6610791100449e-22
7.99463858826989e-21
2.42181595781821e-22
3.82205411749776e-21
1.00560262382196e-20
1.58110431246894e-21
4.59004045024732e-21
4.20120268541955e-21
4.36056283003065e-21
2.04453450150643e-21
1.03181053341768e-21
4.48323189983267e-21
1.4542533937549e-20
1.07834686701911e-21
5.4451239358872e-21
3.32415341255229e-21
3.07766534768698e-21
1.09991487040463e-21
5.29520886766646e-21
4.57204225616547e-21
1.97913087632564e-21
7.08951032601042e-22
1.4553249500465e-22
6.50235498505576e-21
4.38005337765805e-21
1.59653642618785e-21
3.60790239894347e-21
3.25931447307795e-21
1.55467798393988e-20
2.12260620698399e-21
7.63740594267692e-22
3.053011932469e-21
5.41887438475529e-21
1.29695878716405e-21
6.4689098458726e-21
1.21455819804306e-20
3.95122460004114e-21
7.49150218521993e-22
1.57121955466323e-21
2.50525663835352e-21
4.86507019557478e-22
3.16352803915237e-21
1.77163973369527e-22
1.44258569564236e-22
3.31028384581676e-21
1.7053366348287e-21
3.32879063504309e-21
6.46381078844134e-21
4.3585679762767e-21
5.30971496488659e-21
4.33555259812999e-22
3.98039777595792e-21
1.27992260085556e-21
2.62823422577717e-21
3.94845855963245e-22
1.00308670835449e-21
8.49999760459086e-21
6.46017038470051e-21
4.38640732291855e-22
6.57754522156532e-22
1.1814672537635e-21
1.38464116341442e-21
5.31942918533613e-21
8.59941615268761e-21
2.91814216924143e-22
5.64811270287397e-21
5.67890130501261e-22
2.39653789177305e-21
2.67430427325335e-21
4.12418913471539e-22
2.39211726556837e-21
7.49001414377293e-21
7.80980367992923e-22
2.20234582590808e-21
7.44617693527319e-21
4.7189600670503e-21
1.34687837851964e-21
5.53292013426617e-21
1.06279231908406e-20
8.86079806177207e-21
4.94316234430318e-21
1.15665506925823e-21
1.77763522428248e-22
3.56816600027829e-21
7.6676227949166e-21
4.66864752259249e-21
6.96871508446608e-21
7.07730539140289e-21
9.82107616326656e-22
1.44555880594782e-21
4.21682472484337e-21
8.34441110028851e-22
3.18750194712371e-21
3.91339331565655e-21
1.93987998322938e-21
1.30361809386943e-20
2.14113211905491e-22
1.36676603070811e-21
4.71755223945317e-21
6.66423622391013e-21
6.5858336966415e-21
2.19932320762182e-21
1.2143302282033e-21
1.29069582109429e-21
2.02525372475626e-21
2.33556854740265e-21
1.85878910834164e-21
3.09065422098355e-21
1.5906847323397e-20
4.13041743114459e-22
3.43381948397506e-21
2.48816074898042e-21
1.51854389800924e-21
1.38620110434804e-22
1.50648805143259e-20
5.27190615658232e-21
1.03581759060398e-21
1.09861529985989e-20
6.69618939237423e-21
1.51742700752913e-20
7.00308617581851e-22
6.37768902541088e-22
1.05561285576833e-20
3.97676853394635e-21
1.12312074203999e-21
5.487272105326e-21
6.59084920540174e-21
5.17061226513945e-21
1.01254163418014e-20
8.32013114857563e-21
1.24188204040365e-21
7.11128499870566e-22
4.70223323712783e-21
1.63921341596347e-20
8.50234629998247e-21
3.49495990610764e-21
1.28982378500744e-21
3.0391148513329e-22
1.37482441482645e-20
9.04501738880712e-21
2.51931259120431e-21
2.01029138311634e-22
7.8031179955422e-22
2.99218483041708e-21
1.39688487878821e-21
4.56593961059029e-21
3.57104681603958e-21
2.66490817903521e-22
9.6689067026244e-22
8.57445081516468e-21
7.12054690863022e-22
2.40722109749594e-21
4.41834637986076e-21
9.96534981672001e-22
4.98746914195461e-22
2.82382774229886e-21
5.90974814074258e-21
1.93306236272371e-21
7.46866840783594e-22
1.07612793031897e-21
3.00425572234477e-21
9.21483728786434e-21
1.66138353524278e-21
1.10447691936346e-20
6.66652173330272e-21
2.02322871958327e-21
5.38531358867259e-22
8.75431875920244e-22
2.27348044629651e-21
3.00800029155951e-21
1.22554166923181e-21
2.08031003710958e-21
4.19216277347865e-21
2.9763668787226e-21
1.00420191685322e-21
2.29931117971273e-21
6.0172288316812e-21
7.69085231800355e-21
6.02971978988835e-21
2.43440150443394e-22
7.84135055564912e-21
2.88223920343943e-21
2.21829916387768e-21
1.94638095964401e-21
2.1421549186277e-22
3.22602804331182e-21
4.20501215103433e-21
3.39393679954923e-21
5.37781359277031e-22
7.45136030649485e-21
7.03137418447494e-21
2.58229056433746e-22
3.1460944281558e-21
9.0725641934739e-21
3.1785725304017e-21
9.42746875178673e-22
5.71158049557988e-21
1.53094378274185e-22
3.65532085244927e-22
6.11795370816691e-22
7.05008829179433e-21
5.62918846660916e-21
5.73849224925485e-22
1.99811646491097e-21
1.10917157111184e-20
3.49609486338543e-21
2.04574481945157e-20
9.62967900021844e-21
1.26143426871339e-21
4.00577335241912e-21
1.64445775710256e-20
1.06412155207832e-21
4.39591134446783e-22
1.57997644822501e-21
1.99993928391658e-21
3.73943787581193e-21
8.7638910886797e-21
5.33269680037877e-21
2.79052882506869e-21
1.78527743289441e-21
5.78636824221083e-21
2.60332028621748e-21
1.79830921176846e-21
8.21766562456828e-21
1.70622315933473e-21
4.88427683096715e-21
1.47485874431427e-21
1.80021662847392e-20
5.20360523742877e-22
7.94443239089327e-23
3.54689063475203e-21
9.45526173348169e-21
1.94037929354392e-21
9.61729269505663e-22
9.82797071500929e-22
4.11403180743325e-21
6.73129811067305e-22
3.64007860855661e-23
2.60295668917947e-21
6.94152485336976e-22
2.85371114961812e-21
5.26956527041163e-21
3.02030562751982e-21
5.35940139860497e-21
1.74319969088311e-20
1.67979491813826e-20
5.75586708286995e-21
2.38063671351716e-22
5.2600304798758e-21
3.44494556707989e-21
1.31545776354389e-22
1.19004708172493e-21
1.5903375634166e-21
5.186632119273e-21
5.56345011690172e-21
4.59199340265489e-21
6.74413028874563e-21
4.37784851891349e-21
6.38684603675501e-21
3.02096010230322e-22
1.71784036461326e-21
7.7398081477173e-21
3.65940919183118e-21
1.56979138046561e-20
6.93380598148585e-22
4.33850874216841e-21
2.41984299201389e-21
6.33370719525601e-21
6.60101466435141e-21
5.19863622530916e-22
1.81703716228574e-21
5.87532792897371e-21
1.14932227314563e-21
2.45403529733258e-21
7.56544733770086e-22
1.66892207417043e-21
1.25795003688833e-21
1.01297358490866e-20
5.65149449320776e-21
4.60181027449446e-21
1.00392433449485e-20
3.65807738051194e-23
9.04623661856631e-22
4.92100803304426e-21
8.35584543743109e-23
1.1086282527427e-21
2.52337197175313e-21
3.98106763660455e-21
4.17179972646918e-21
9.75494017833929e-22
3.74702254967693e-21
2.5720746947991e-21
5.09170655526738e-21
5.03267362170118e-21
1.28720757970725e-20
1.63678014658199e-21
1.27014051007957e-21
5.46900237339081e-21
3.70604917898278e-21
9.23298928706074e-22
9.67785885493186e-21
1.01833240394891e-20
3.92139047101668e-21
4.12477388936004e-21
5.00677872827295e-21
2.81406441160486e-21
3.69738362477198e-21
1.83320866363014e-20
1.05935784881041e-20
1.50634537988651e-20
9.04825006471333e-21
1.0751841042936e-20
1.5065545909627e-21
1.76717966422095e-20
7.13082114403662e-21
1.56236938499869e-21
1.10744224881623e-21
7.54882871564216e-21
3.22384858368387e-21
6.64759683928669e-22
1.39283789396081e-21
1.82597226556138e-21
1.12897673974767e-20
8.74709423078111e-21
1.46157904113607e-20
6.73602816538145e-21
3.30767762930941e-22
5.53025305100106e-21
3.86954372697583e-21
1.06702448059358e-21
1.11023113819015e-20
7.42736249143684e-22
1.21525120059085e-21
2.7115886476154e-21
1.17927322233145e-22
5.88173526146575e-21
9.6796264771072e-22
8.06592527531505e-21
1.52796242938358e-20
1.6149019604432e-21
6.0619864987011e-22
1.30257374859383e-20
3.70639248692373e-22
4.47786906395469e-21
1.14937295314366e-21
4.6822088997158e-21
1.05132947364533e-21
3.86763752753908e-21
3.68704035907243e-22
5.98209436246975e-22
3.39982776527318e-21
6.06692718445589e-21
3.02951366513407e-21
2.66591474473626e-22
3.22097483052049e-21
6.87153736052734e-21
1.21752847737927e-21
4.35835672740885e-22
2.21036057578963e-21
2.53246176128091e-21
3.03259349719415e-22
4.88271231228701e-21
6.67204428368149e-22
6.14450547291141e-22
1.32530592910147e-21
1.53222478323531e-21
3.07102510648847e-21
1.07429760972014e-20
2.54128162607032e-21
9.09483752426999e-21
3.36524606304418e-22
1.11616349495662e-21
8.62982685936732e-21
9.23736877940373e-21
8.4414939871458e-21
2.09426743530672e-21
5.98811499060506e-22
3.39362488997944e-21
1.1072301846834e-21
4.69085007885318e-21
1.02944729475615e-21
8.12653298638845e-22
3.94113411073355e-21
1.9595203486046e-21
5.2036030067536e-22
6.43937586964386e-21
3.42174292024836e-22
9.89927333733812e-22
2.39307027290952e-21
1.52479762351931e-20
9.02524686696974e-21
2.8526789485292e-21
2.66342602538517e-21
1.11615944695191e-21
1.79140962378233e-21
6.91509038046901e-22
2.16063190455323e-21
4.43079364762272e-21
3.36854357620734e-21
8.43452690272526e-21
7.60385621747584e-22
2.86799333113429e-21
4.99323665512137e-22
1.4301404954299e-20
1.86556040497506e-21
3.39537782730595e-21
3.2788245379422e-21
2.14495129609264e-21
1.12077820545478e-20
4.55845732906688e-21
9.79827615436243e-22
3.48792577459885e-21
2.43344902644577e-22
4.38055236456407e-21
1.88840093488037e-21
6.93114917081076e-22
4.92938182250543e-22
3.74327279068745e-22
2.26376553780536e-22
4.23601421079674e-21
8.41566059318117e-22
7.48703899870231e-23
2.07322976537479e-21
2.68090704869627e-21
1.005676878031e-20
3.26226050625619e-21
1.39355812045335e-20
8.55016002980037e-21
4.31863406037635e-21
1.09841061319935e-20
1.36677784297762e-21
7.82406137555102e-22
6.57129301827178e-21
3.98590243888334e-22
2.8048596925751e-22
1.62043376337966e-21
4.79336183256079e-21
2.36723867993614e-22
1.07264343084659e-20
8.80134778442461e-21
4.70339337729564e-21
4.36579959278128e-21
3.72878664832674e-21
1.56037921029785e-21
3.44388842617399e-22
5.31699681895781e-21
3.14792841276294e-21
1.17396793994584e-21
2.04686408887459e-23
7.44694190658962e-21
2.99606313740669e-21
1.40373630516429e-21
9.52606873500079e-22
2.25394960842164e-21
8.90930518400727e-21
3.43869515329903e-21
6.0809717938422e-21
2.08365929574831e-21
3.74609065936678e-21
7.52089108660813e-21
2.52268234964057e-21
7.2148519648699e-21
2.51317718145484e-21
2.39672187095862e-22
8.97306016347966e-21
3.96234880821095e-21
9.60287946669251e-21
9.93854615197767e-21
4.60036469382923e-21
1.46553390551054e-20
3.90524312249308e-21
7.53467423603919e-21
2.19403035700152e-21
5.22050014379683e-21
1.96570137674618e-21
1.92027726209139e-21
7.80827962173824e-21
4.08620849855623e-22
6.06160758354638e-22
1.43039842945036e-21
2.07725347165474e-21
8.78611277797578e-21
3.63899269570901e-21
9.13992621727366e-21
1.61929804284598e-21
5.06771500094921e-22
1.0353005542804e-20
1.28233368127073e-21
3.31786095480722e-21
1.59277693060202e-21
8.06120601351309e-21
9.39083571123288e-22
1.6927815412898e-21
4.38630856434421e-21
1.33555302646874e-22
1.28945007797282e-21
1.49742823405424e-21
7.61045597078319e-22
5.3034371185694e-21
1.28962571873917e-21
1.70793088284201e-21
1.10219004967241e-21
8.35228149663556e-22
1.5015455701447e-22
2.93289345330701e-21
1.58448393844861e-21
1.08643714307195e-21
1.52374477540547e-20
1.25377315228552e-21
6.79118380675292e-21
1.84879007254448e-21
5.06398133021991e-21
1.68811508758503e-21
7.38529769338851e-22
7.31044990014346e-21
8.58703093310269e-21
2.74219668639328e-21
2.98426712412879e-21
1.70167125110692e-22
9.88907167828982e-21
3.26619926497641e-22
5.50459538438727e-23
5.61099984514459e-21
8.35209818902383e-21
3.49246452004856e-21
1.09272855881949e-21
8.15498786259345e-21
3.3501512679664e-22
3.12182046835857e-21
1.67905420537538e-21
1.1539737175733e-21
6.00792534321361e-21
9.86226934283065e-21
2.96520755659968e-22
2.66491381501948e-21
8.78791287271659e-21
6.59169412523986e-21
2.04861213533652e-21
2.85926692061477e-21
9.97502221178569e-21
7.04505449076539e-22
7.38512812997159e-21
3.2932618618276e-21
2.6070972055491e-21
8.37609579793639e-23
7.38946827127974e-22
1.53667398168935e-21
3.68349074867075e-22
2.95047558935966e-21
2.22328711138796e-22
4.14026278478935e-21
3.30748162975995e-21
2.82751500176995e-22
1.42999211079748e-21
1.54564507867308e-20
1.02656281225771e-21
9.62813210761296e-22
8.37470281886324e-21
8.48415565047293e-22
8.43400426128281e-21
2.77155699242675e-21
7.34700497680423e-22
7.17482846736943e-22
5.07978501458993e-21
5.96243262588309e-21
1.11137626196304e-20
4.23273076824832e-21
3.2585761624782e-21
5.63353596768147e-22
1.5823642297289e-21
7.50460299707995e-21
5.2785904072597e-21
1.02433201095235e-22
1.04140916736336e-21
5.14746468626443e-22
9.03088622727326e-22
4.70145458387505e-22
2.50899630769834e-22
6.32724079749862e-21
1.72394815058419e-21
2.26975548279925e-21
1.6093098629986e-21
4.28585689326933e-22
9.17094932727416e-22
4.99766818631851e-21
4.51106029521593e-21
5.23049834226018e-21
2.98613132439549e-21
3.94477932638709e-21
8.55937722377771e-21
2.11085070760818e-21
1.28246873247288e-21
2.63522892375776e-21
1.46175789939771e-21
8.01472251148935e-21
8.25898208204752e-22
6.52204948694002e-22
6.6626249613628e-21
1.42086132332215e-21
1.31991650494944e-20
3.28973751815276e-21
1.4331283354474e-21
9.55859757630987e-21
9.03260829930151e-22
1.24577445103886e-21
4.09050820400742e-21
1.12315381810459e-21
1.2050218434012e-20
7.75298379900085e-22
1.35735739102278e-21
3.95446708411555e-21
1.78232146359118e-21
3.8297976398088e-22
6.1718977539347e-22
1.21011769082861e-21
1.40143578404461e-21
7.89731530152813e-21
4.39285626247918e-22
1.48696293838395e-20
1.43000229871926e-21
3.28757632571653e-21
2.8972564213003e-21
5.22240364124963e-22
7.53479290997771e-21
2.79266206130189e-20
1.20461740038324e-20
3.7510952599168e-21
2.33524448460176e-21
3.14822550461593e-22
9.2019671072441e-21
1.22313671705915e-21
1.47268341562081e-21
2.35081018905007e-21
1.38128060339587e-20
8.4886580052033e-21
4.83634547305728e-21
1.39492227352587e-21
2.22393213300156e-21
8.20380306073179e-21
3.99739490524216e-22
3.42538932615634e-21
1.02138135624683e-21
1.32734800654565e-20
4.56587017372972e-22
4.73363419133738e-21
5.37600154180913e-22
2.00988176569948e-21
6.02906531823746e-21
1.58072072529221e-21
5.30042221001384e-21
5.54623229567192e-21
1.84034948199334e-21
6.38279707557975e-21
5.00482645631114e-21
6.23184146690409e-21
7.56682613789733e-21
8.36028090605805e-22
9.70810899059721e-21
3.10601819501146e-22
3.89146601450332e-21
7.69479953622016e-21
1.02632833094457e-20
1.34291324642637e-21
5.02438086639982e-21
1.24883955145225e-21
1.54533135372167e-21
9.44083002792981e-22
2.77144005983167e-21
1.74774155429311e-20
8.80970055360676e-21
1.54059314678362e-21
4.62427263134645e-21
5.31905301092669e-21
1.59085084742753e-20
1.09777934823361e-22
5.67908220294491e-21
3.58328049807688e-22
9.40410077551085e-22
5.92816705651985e-21
8.45112212981982e-22
1.16585570563448e-21
1.8542123965583e-21
2.65110805184458e-21
7.01926884887793e-21
1.60355522868113e-21
6.48844276466176e-22
1.30623833936168e-21
3.322835340865e-22
6.62742514307638e-22
1.87439350577527e-21
6.29368173107965e-21
2.59235706150997e-21
2.28698143790556e-21
2.62814507967196e-21
6.72922991921762e-22
6.50625287524547e-22
1.09909538163688e-20
7.91906588840355e-21
4.23759897315088e-21
4.50760611326356e-21
1.02952056890261e-21
3.81349798660894e-22
7.51593716179039e-21
3.72003775465275e-21
4.69358680432639e-21
5.39557128253971e-21
4.78055304674218e-21
3.06267661910751e-22
4.49812497753791e-21
1.47361546050244e-20
3.72917714354984e-21
1.52323326387492e-21
7.47292627397136e-21
4.00388805922403e-22
3.82108731905651e-21
7.57193914632104e-21
3.83860499308179e-22
3.87494344483325e-21
1.47981017998402e-22
2.16745926607227e-21
1.21403383994964e-20
2.14683177356813e-21
3.7511498615921e-21
5.70450132481651e-21
4.59856841397584e-21
2.78014809757593e-21
1.06763269044541e-21
4.52454548403628e-21
7.90465239709372e-22
2.76355359361781e-22
2.58379804945326e-21
9.61287453931513e-22
3.0163284667836e-23
5.12350848291585e-21
1.88121434194096e-21
1.11811281959541e-20
1.75265650435132e-21
2.21432951348694e-21
1.115291185647e-20
5.64861019727389e-21
1.23661734363089e-20
3.26093657254655e-21
1.0485549251571e-20
4.67069762959706e-21
1.82954126381135e-22
7.18294655741889e-22
1.01535819098548e-20
1.07327665162077e-21
8.87717923451287e-22
6.57126395092477e-21
5.43772222955013e-21
5.46753803409643e-22
1.3204785910531e-20
3.46509584917754e-22
8.7738023262193e-22
9.74655990763769e-21
2.36367077005926e-21
2.45392027582294e-21
5.15129313911572e-21
5.33530898244918e-21
4.12292859835094e-21
1.35375133911016e-21
3.31647023155214e-21
9.98717031238968e-21
2.25763319337259e-21
1.3423075766753e-21
4.64672423709974e-21
5.73496474425911e-21
1.14689159861975e-21
1.66795620924594e-21
6.54982208502206e-21
4.95690615960603e-22
5.93181773287647e-21
1.46022533424943e-20
5.49217890310102e-23
3.85940720900022e-21
2.29237985271698e-21
2.52833110668741e-22
2.05263063652084e-21
2.29970121201278e-21
3.70205095189073e-21
7.40125554455031e-21
5.08755685915369e-21
3.2443889606439e-21
6.07605033975605e-22
1.04987718704486e-21
8.87457447630319e-22
1.88660623486966e-21
8.74525913316889e-21
8.37991894878455e-21
3.58361026988644e-21
2.14530177453036e-22
6.83824313320972e-21
3.38332475161756e-21
2.88782973309227e-22
2.53371841042021e-21
4.69961684505352e-21
7.64887449867885e-22
5.91881558020103e-22
3.80641416024502e-21
1.14698836103457e-21
2.61387049308263e-21
5.76016406243708e-21
1.06076128045553e-20
3.1973118352372e-21
6.01834747648803e-23
7.19771082684771e-21
1.48800599533625e-21
2.91216425792605e-21
2.80490664589812e-22
1.53348272296483e-21
9.82070228505049e-21
7.10611750845081e-22
2.59873010562633e-21
6.72227063667334e-21
3.14941932894094e-21
2.9473960865187e-21
4.16847437309436e-22
1.99684134919656e-21
4.6002560344237e-21
2.55497109069136e-21
4.06490063333258e-22
1.62451446436222e-21
5.00498167743725e-21
7.99625545321101e-22
8.69413502609223e-23
2.45273554415031e-21
7.8754149125876e-21
5.33899519885909e-22
2.80074434125361e-21
4.00551120274536e-21
4.96831862656672e-21
3.77654723038975e-21
7.89668985374997e-23
9.65773157601849e-21
1.29790024218654e-20
6.72793084766736e-21
8.20096719072277e-22
4.31445247485492e-21
3.27225341679505e-21
2.34145835985812e-23
2.68771641189241e-20
2.4827637623556e-21
1.52181404705681e-21
9.61649163699341e-21
2.00068814336395e-21
1.02647642108309e-20
1.4425032600024e-21
1.78624770452961e-21
2.05224250762344e-21
1.2105317452042e-21
2.02537862305927e-21
3.70825799663071e-21
5.0048275540356e-21
4.87669642407891e-21
4.9157753713911e-21
3.54867430155691e-21
1.73077100065252e-21
3.23930413687629e-21
1.96585015606213e-21
9.16672573112736e-22
1.16988359558282e-21
4.84133113923842e-21
1.27838370498398e-21
7.32456118812633e-21
2.03278171198312e-21
4.9204736399855e-22
2.88953366416029e-21
2.63414634366541e-22
1.03701926799838e-20
6.90369622180955e-22
8.15609452134829e-22
2.76549186623116e-21
5.03371788910946e-22
1.24361690938204e-21
8.25844166610074e-22
5.44760120587279e-21
2.62461099056525e-21
3.06951455881281e-21
9.29277086319064e-21
1.23559551373008e-20
4.6860752200584e-21
1.79292536768103e-21
4.2786431488367e-21
5.08174550331193e-21
8.26236851170958e-24
2.70657402127273e-21
5.02392574785372e-24
4.56752701206612e-21
3.26589067018767e-21
7.91965371463708e-21
1.65593819805763e-21
3.57270109835621e-22
7.45412731766036e-21
7.52105692567428e-21
4.7754246465506e-21
4.13174844374779e-21
1.53728937149198e-21
1.42150582667939e-22
1.13186354283126e-20
8.80090150665049e-22
6.75579021013606e-22
9.98406614578044e-21
1.51241796650845e-21
2.25981882317042e-21
2.04153460052842e-21
3.68995534168459e-21
3.08009411274633e-21
7.47766346705612e-21
1.249329070085e-21
1.06979563274617e-21
3.32451324771658e-21
1.29037603429184e-20
2.71070378135399e-21
2.40309546700323e-21
9.76062147868293e-22
5.29052724323712e-21
5.53951475891684e-22
8.55073781619176e-21
2.11964302160398e-22
8.6637524584565e-21
4.64391731620548e-21
6.91918871479848e-21
1.5865046404713e-21
1.19872219756244e-21
7.67009797809816e-21
6.90252447553197e-21
3.72019375727101e-22
5.83507715522948e-21
2.024743505622e-21
7.84705749553863e-22
3.76622875508071e-21
1.42248811332599e-21
3.02653528066124e-22
5.70618661831629e-21
2.07372469180602e-21
5.12276014201471e-21
6.32682835080559e-21
1.67556579957191e-21
5.6019509709305e-22
1.88108533560497e-21
2.70292488842253e-21
5.22653381743557e-21
3.55026201728904e-22
6.50586694342148e-21
3.81567784638633e-21
1.36844366468366e-21
1.83856989410062e-20
6.36902468876286e-21
1.53366959296867e-21
3.49161930627983e-21
1.37717438679216e-21
5.05717227449039e-21
5.06645220876711e-21
7.16145698509759e-21
1.42841533895432e-21
1.98985238554348e-21
6.87455456307868e-21
2.90591251833181e-21
5.17200981636064e-21
2.84153706070052e-22
1.0616886395131e-21
1.58629324177317e-21
3.91756302385838e-21
1.74787446613219e-21
3.29338398206083e-21
2.83503062999341e-21
3.78962025168274e-21
2.73289712460206e-22
3.94526819504723e-22
1.72842497316331e-21
9.3583036273307e-21
1.33249851652491e-20
2.15405345240335e-21
1.42474921832392e-21
1.47250906900175e-21
9.01961694159063e-21
2.72792707876076e-21
3.43210287744258e-24
1.68855305246626e-21
6.80657316124599e-22
2.47515278163547e-23
1.01039160846858e-20
5.43868660769934e-22
4.81380185943971e-21
4.76337639979223e-21
1.13747765713563e-20
2.24175432573949e-21
9.90160439410286e-21
1.75354147660898e-20
1.4331864754603e-21
1.6663394411187e-21
4.19513311058606e-21
2.2569651898503e-21
5.45029106818796e-24
2.17384641392264e-21
9.76770257890165e-22
2.17029144844078e-21
1.05120143664395e-21
3.01254203234491e-21
1.10454407359211e-20
5.85919238920914e-21
3.91778959732834e-21
1.00814627962546e-20
3.22748422956045e-21
1.64460462950098e-21
2.02117711510321e-22
8.55217554163759e-21
4.25989343183302e-21
1.3416955573391e-20
1.93495638165339e-21
4.3444512907924e-21
7.91701636486833e-22
1.11293999336382e-21
1.19917281183778e-21
1.11067454655395e-20
1.46980273605467e-21
4.17032456153076e-21
4.64375575378694e-21
4.5233093966408e-21
4.91893012330334e-21
2.48970598428901e-21
5.92507893789972e-23
1.35958685211537e-20
6.73970683297537e-23
5.94620716156052e-21
6.56269561657604e-21
7.05988193625664e-22
1.39144321360755e-21
3.92275915333552e-22
5.31980119954041e-21
1.44868728605393e-20
4.52664610608781e-21
1.4573006619999e-21
1.10694958858376e-21
6.82289668852434e-21
1.21090437276869e-20
4.71480636351967e-21
2.50570406328243e-21
1.77928636586088e-21
2.39819981019881e-21
5.68943090290962e-21
3.60120627815352e-22
2.52088606888434e-22
1.33378401666726e-21
1.02197441095385e-21
2.73797302254316e-21
1.25298809056091e-21
8.47993723096809e-23
3.12867966355476e-21
1.31155432424715e-20
2.61461725653977e-21
2.38596820729726e-21
2.78779441090343e-21
6.32205373789626e-21
7.93782952532663e-21
5.52378085449681e-22
1.92149987510949e-21
4.61921308283949e-21
9.19349713936705e-22
3.41043569190337e-21
1.17189735439084e-21
9.64682897082567e-21
9.45494478136395e-22
8.62383782029767e-21
7.06395939545343e-22
1.24202104007351e-21
3.52893727459667e-21
1.36708053990585e-20
7.18507663386148e-21
8.31011688343114e-21
6.47457099367216e-23
3.69876621598719e-21
2.03172078931599e-21
2.55986234203776e-21
2.45954499387413e-21
2.01924537195214e-21
1.63193070749004e-21
9.61016078455283e-22
2.33767700366638e-20
5.38440824398987e-21
1.47199727025637e-21
5.58555766154806e-21
1.75437706478397e-21
6.88538462807026e-21
7.69407057766334e-21
3.6951610498209e-21
4.60547749708353e-22
1.61292690581076e-21
3.27652074485209e-21
2.97172011003168e-21
3.91444477085147e-21
1.69615294561346e-20
2.57987744141595e-22
6.51063538830982e-21
7.84967736360932e-22
5.92991708920296e-21
5.52093506896437e-22
2.8506065082135e-21
5.26182329021861e-21
4.7057034112531e-21
1.2393040162669e-21
3.61510519726863e-23
6.23651809217708e-21
2.43529168281698e-21
4.69238956869382e-21
7.32844153909843e-21
7.1728766939308e-22
7.49093559115237e-22
1.10022554433769e-21
1.51858322051959e-20
1.33907000501683e-21
3.61757850729245e-21
8.11327032663373e-21
3.42009083239313e-21
3.0826506077885e-21
3.61052885429695e-21
1.95839614974979e-21
7.20993490496289e-21
4.42326172487526e-21
3.75855516064524e-21
3.30376422866108e-21
4.33745970395309e-21
5.52079539938275e-23
1.20634284844695e-22
6.98510828664776e-21
7.97344727333813e-22
6.89534629244789e-22
2.31833916630166e-21
1.86614986555267e-21
1.65300653988389e-21
5.82892405781593e-22
5.96473597425967e-22
2.22192642207716e-22
4.28807485200576e-22
1.7235232407237e-21
8.45495989635174e-21
3.02337794215155e-21
3.59131597092534e-21
7.76919712227463e-21
2.95591839792395e-21
2.6364690636804e-22
1.46367677756266e-21
2.72120112808017e-21
3.99098006844517e-21
4.48476004753811e-22
1.81730521188452e-21
1.15724584862121e-20
3.69565870237956e-21
1.5973987163639e-21
5.05447715183832e-22
1.44164887109928e-21
6.29618646933794e-21
5.08326286084886e-21
6.51706784649948e-21
7.18214656090827e-21
1.24813991451788e-21
1.38684479331238e-20
8.79049032940114e-21
4.36414806703473e-21
3.57526744555985e-22
8.10071103716619e-22
3.44944185974155e-21
2.31043500059149e-21
4.94121706318169e-21
1.0101143525521e-20
5.58584136589403e-21
1.17136365173807e-20
1.75007134828295e-21
1.69377216415525e-20
1.6927852042077e-21
1.81757418517963e-21
1.42480253686809e-21
6.84398166566712e-22
9.10184215485782e-22
4.10821561035451e-22
1.14545908358688e-20
3.88625964372637e-22
1.68232287969234e-21
2.02786709267029e-21
2.1259039871391e-20
2.04077933674612e-21
1.47369099813804e-21
9.88040048129626e-22
7.28859634641014e-21
2.13455536375855e-21
5.63343690448666e-22
3.66353875353576e-22
9.18440191924842e-21
3.26982991926445e-21
1.22502778720257e-20
1.95527820086381e-21
4.00711512409859e-21
2.61073919809792e-21
7.63787149103242e-21
2.17968915955642e-21
8.37781104204843e-21
3.42009575204129e-21
4.72421967462135e-21
5.88713061938739e-21
1.25155533560925e-21
2.5275814382255e-21
7.416758020704e-21
1.9922626631307e-21
1.10436263226835e-21
1.46714738064708e-21
2.89909448988072e-21
3.05035983171363e-22
2.16399832894741e-21
1.47687453028153e-21
4.06642496245028e-21
3.8497347003106e-21
6.66964979002804e-21
3.04920066918328e-21
9.14561282888528e-21
2.01741168116626e-21
6.98834242704583e-22
5.5358684013763e-21
8.66482431361652e-21
8.71942022870625e-21
1.22258686896247e-21
2.88368632460307e-21
1.28673542405575e-20
2.65169545707629e-21
4.95817220876176e-21
7.08762785130701e-21
5.16282970848957e-21
1.25585445256886e-20
2.11744921964612e-21
3.24141362549201e-21
6.1004899655428e-21
7.15350671089032e-21
1.72554862547185e-21
4.62849952231047e-22
1.54366941755385e-21
2.8456807963828e-21
6.28971211917547e-21
2.23197799522495e-21
5.90258839212928e-21
1.02230823110698e-20
9.36995230113376e-23
1.28663511401641e-20
6.87322317346156e-22
8.71937810058698e-21
5.06607512457183e-22
4.49984264084125e-21
2.57393485167234e-21
1.27050407287276e-21
3.35838229125588e-21
3.03822694602213e-21
1.48707212037333e-21
1.4808169597471e-21
6.65120082651696e-22
1.3876856337889e-22
1.62395203625206e-22
1.71461638941196e-20
3.1325461115681e-22
9.13872400682973e-22
1.79100143062257e-21
7.97198221647239e-22
2.24348221683655e-21
2.27563268345e-21
1.81561074649627e-21
2.53100004223144e-21
1.85429186269572e-21
4.85335058899691e-21
1.22564086483068e-21
2.32662071935528e-22
1.22206338644445e-21
1.71247763720668e-21
1.07692678469726e-21
2.25866305775381e-21
3.78618526032031e-22
1.24384529646975e-20
1.63160307713099e-21
9.53994034606774e-21
6.14838622983992e-22
1.20629821131386e-21
5.95066858869744e-22
1.20510550006344e-20
3.99911503739719e-21
4.22167357016435e-21
1.81003868900963e-21
3.78388394340736e-21
3.35778105682149e-22
5.23395756910447e-21
2.14127457869242e-22
3.65829119051765e-22
7.93070292069253e-22
1.24165609588526e-20
3.63441058834399e-21
7.98833333788485e-21
3.93365444366749e-21
1.61761772529614e-21
1.60097501117869e-20
1.35663486395951e-22
2.09895333507149e-21
7.20879166506154e-21
2.3515265599391e-21
2.09943562536064e-22
1.01548367855668e-20
5.80029300263233e-21
1.18017575093284e-21
5.79443866798866e-21
7.15971057686139e-21
2.71395078412339e-21
1.03568809296594e-21
6.76427762707909e-24
6.56633024816762e-22
6.490991642096e-21
1.38001249928321e-20
1.78746928032903e-21
1.04122156608816e-20
7.2743176253073e-21
1.55948998540825e-21
1.76964551598595e-21
3.3861020388064e-21
2.0411446559056e-21
1.01484600191665e-21
6.36067035660949e-22
2.85975862274666e-22
1.7821299333259e-21
1.97432502084843e-21
1.32352848302471e-20
3.58667563077316e-22
4.9212132473217e-22
6.26241423952516e-21
5.19365825615213e-23
1.57475848965839e-21
7.79385618536065e-22
2.71758496565549e-21
1.00190656318262e-20
4.18529933573181e-21
7.54676404579203e-21
8.0678551752251e-22
1.66860287105383e-21
2.19163528449436e-21
3.47926656527287e-21
2.2018032642512e-21
2.76338830985884e-21
4.16297266894693e-24
2.88884577222488e-21
2.78394881100711e-21
1.26095553122957e-22
4.52845908525434e-21
5.33448994643633e-21
4.30011770343135e-21
4.42121476334048e-21
1.04605816954509e-20