/*--------------------------------*- C++ -*----------------------------------*\
  =========                 |
  \\      /  F ield         | OpenFOAM: The Open Source CFD Toolbox
   \\    /   O peration     | Website:  https://openfoam.org
    \\  /    A nd           | Version:  7
     \\/     M anipulation  |
\*---------------------------------------------------------------------------*/
FoamFile
{
    version     2.0;
    format      ascii;
    class       Cloud<dsmcParcel>;
    location    "0/lagrangian/dsmc";
    object      positions;
}
// * * * * * * * * * * * * * * * * * * * * * * * * * * * * * * * * * * * * * //

5220
(
(0.647838559001681 0.294349526986481 0.049548037350179 0.00826387666165878) 0 0 1
(0.0252998694777553 0.695991831831631 0.200806970242409 0.0779013284482047) 0 0 1
(0.046111568808553 0.199403187260034 0.344395848456769 0.410089395474644) 0 1253 1
(0.728590656537563 0.114756125025451 0.12173581495881 0.0349174034781759) 0 2591 1
(0.277627364732325 0.562950865365563 0.103724298067389 0.0556974718347227) 0 2591 2
(0.192303821444511 0.136670338455589 0.530371651053425 0.140654189046475) 0 2591 2
(0.0251499800942878 0.0799863352440255 0.0852281874977075 0.809635497163979) 0 2616 1
(0.0332271717488699 0.310679092537615 0.168324202299124 0.48776953341439) 0 2616 2
(0.583509707357746 0.309942517895245 0.00892400601878844 0.0976237687282208) 1 1 1
(0.336896192748105 0.0312531818635715 0.182033319957551 0.449817305430772) 1 2 2
(0.138510311488062 0.122018318623306 0.168040344957257 0.571431024931375) 1 1817 1
(0.0268234852701424 0.258489933330564 0.130545989610256 0.584140591789037) 1 1817 2
(0.366557795088738 0.290405552834274 0.21914965333417 0.123886998742819) 1 2617 1
(0.0597861744463429 0.440946421585978 0.0184982609935103 0.480769142974169) 1 2617 2
(0.0714371511712727 0.489125629886985 0.260509831830856 0.178927387110886) 1 2627 2
(0.100787503644822 0.138226689770819 0.448359121102837 0.312626685481523) 2 4 1
(0.151334017515182 0.444373343605548 0.143449146300555 0.260843492578715) 2 2495 1
(0.282915540039543 0.335145997814833 0.213363422080874 0.16857504006475) 2 2618 1
(0.371712505351758 0.34535770025104 0.0219336980953781 0.260996096301824) 2 2618 2
(0.169879341498014 0.271508765406905 0.496842020191254 0.0617698729038275) 2 1 1
(0.165512532927098 0.434981885831802 0.0122472257353382 0.387258355505762) 3 6 1
(0.316633196547638 0.384768034797158 0.107048559933896 0.191550208721309) 3 6 2
(0.229904838372022 0.18881501071155 0.142241251654924 0.439038899261504) 3 1865 1
(0.380206862930209 0.13554872758687 0.404356409795582 0.0798879996873392) 3 1865 2
(0.199384680017829 0.591301553882654 0.0284978458657849 0.180815920233732) 3 1865 2
(0.370508302468807 0.303813363425434 0.212795563507827 0.112882770597933) 3 2519 1
(0.651553961448372 0.151074189692735 0.172490032389762 0.0248818164691312) 3 2519 2
(0.459745065309112 0.0280636399984337 0.137404482346022 0.374786812346432) 3 2619 2
(0.15487327147275 0.244858730584387 0.377692019566895 0.222575978375968) 3 3 1
(0.227707003708927 0.0667199273593748 0.413123673293738 0.29244939563796) 4 7 1
(0.0272542922757505 0.26431866269559 0.256253502331674 0.452173542696985) 4 8 1
(0.0680768713355092 0.22477589128539 0.575161853339522 0.131985384039579) 4 8 2
(0.488887048792094 0.118511235341425 0.0887565589509928 0.303845156915488) 4 1889 2
(0.111715949140489 0.217031829990443 0.220343365799635 0.450908855069432) 4 2543 2
(0.230723987799141 0.436902576591818 0.0687495139427487 0.263623921666293) 4 2620 1
(0.062225999310616 0.0603404794819637 0.815387790091333 0.0620457311160872) 4 2620 2
(0.121788743883362 0.702567290980374 0.138192894402888 0.037451070733376) 4 5 2
(0.0269473278894942 0.0601478088647167 0.0937593150883943 0.819145548157395) 5 10 1
(0.473405474796887 0.151965265627957 0.0688901995308716 0.305739060044284) 5 10 2
(0.0772713157348337 0.317252427805215 0.151936279144137 0.453539977315815) 5 1913 2
(0.120780821889639 0.244651830755178 0.310828797984871 0.323738549370313) 5 2567 2
(0.212874951306721 0.11390489153564 0.148013163823639 0.525206993334) 5 7 1
(0.179174130316831 0.292027920484539 0.404707023873921 0.124090925324709) 5 7 2
(0.118134589400148 0.533202996477482 0.0708586266264323 0.277803787495938) 6 11 1
(0.00120616098865844 0.29490466602147 0.192433479707691 0.511455693282181) 6 1938 2
(0.2377241528593 0.42415397474542 0.230994324665516 0.107127547729764) 6 1938 2
(0.176302417647094 0.250165549106895 0.292733827605844 0.280798205640167) 6 2592 1
(0.155942865647376 0.12189299892634 0.546610218007115 0.175553917419168) 6 2592 2
(0.0204031048342538 0.298108838964256 0.379620770458129 0.301867285743361) 6 9 2
(0.581243413966152 0.00660572480409858 0.118416638113562 0.293734223116188) 7 12 1
(0.359579185489562 0.206206455826761 0.102175693958998 0.332038664724679) 7 12 2
(0.437572278082367 0.281961248721929 0.11265757679939 0.167808896396314) 7 13 1
(0.465950156562034 0.108931887429205 0.0864001363515836 0.338717819657177) 7 13 2
(0.194719729945064 0.108364602550863 0.13895636284724 0.557959304656834) 7 1702 1
(0.190735445357859 0.592801004182552 0.0587925165891626 0.157671033870426) 7 1702 2
(0.0674318526871409 0.421574526000775 0.494633843656627 0.0163597776554571) 7 2623 1
(0.188548585865648 0.443520880769938 0.347201076336203 0.0207294570282115) 7 2623 2
(0.0142659968696575 0.0220458349212983 0.0597863937728137 0.903901774436231) 7 2633 1
(0.221893726382403 0.533343298826367 0.130453522317112 0.114309452474118) 8 14 1
(0.516856594942517 0.00151379918679247 0.248177364934236 0.233452240936454) 8 15 1
(0.610547019168735 0.0779924588277934 0.0197687894105938 0.291691732592878) 8 1725 1
(0.479990283027291 0.26782351685688 0.0731875631026952 0.178998637013134) 8 2379 2
(0.48759279120714 0.147082511801267 0.27573910634965 0.0895855906419429) 8 2624 1
(0.656772790011015 0.060176093596968 0.104023315012457 0.17902780137956) 8 12 1
(0.120107149705288 0.247945656999946 0.175054913386704 0.456892279908062) 8 12 1
(0.0744335404597275 0.648995436728 0.0401426628231985 0.236428359989074) 9 16 1
(0.186110951937735 0.491396790836008 0.242915907409042 0.0795763498172153) 9 17 2
(0.116679766681046 0.541052770800887 0.288080791011452 0.0541866715066145) 9 17 2
(0.061393817421044 0.630910586565732 0.29647207586095 0.0112235201522732) 9 2625 1
(0.510748515836895 0.251835673116147 0.172423765994608 0.0649920450523498) 9 14 1
(0.536330734379584 0.248228393029425 0.214910300448536 0.000530572142454687) 10 18 1
(0.421933512669049 0.110565219074491 0.466129796113817 0.00137147214264235) 10 19 1
(0.0534066967666125 0.0715318717993855 0.565589987207205 0.309471444226797) 10 19 2
(0.271559294778854 0.43009749939665 0.0971283307299012 0.201214875094595) 10 1771 1
(0.354260077234357 0.308540019672362 0.0744983162730945 0.262701586820186) 10 2425 2
(0.0618234123103254 0.842048372607683 0.0647629462182504 0.0313652688637409) 10 2626 1
(0.337562834843995 0.0138058573938929 0.238807784393427 0.409823523368686) 10 2626 1
(0.120674583595249 0.100711676757781 0.0177173023112111 0.760896437335759) 10 2626 2
(0.182002236135303 0.240295074880125 0.144561038818211 0.433141650166362) 10 16 1
(0.169379471335553 0.213692552410069 0.300226230639965 0.316701745614413) 11 20 1
(0.258074073586612 0.0433689714409366 0.0146097661927391 0.683947188779712) 11 20 1
(0.0666360384784565 0.502965250052517 0.190325368661437 0.24007334280759) 11 21 2
(0.509558070916683 0.339940719772128 0.0544388000853365 0.0960624092258534) 11 1794 1
(0.260735547170043 0.0692498371936383 0.150393229909241 0.519621385727078) 11 1794 2
(0.333348915912211 0.205905461218212 0.30116573115811 0.159579891711467) 11 2448 2
(0.25476141180843 0.335600099526344 0.0195299158804145 0.390108572784812) 11 2628 1
(0.0970368431881099 0.268708194140343 0.0623226938769246 0.571932268794622) 11 2628 2
(0.14634637394919 0.67857736954466 0.171514566522088 0.00356168998406217) 11 18 2
(0.218521918170157 0.122402966488153 0.478497291915117 0.180577823426573) 12 23 2
(0.0567556275054815 0.108679111581296 0.785980702843517 0.0485845580697059) 12 2472 2
(0.154623873531818 0.109572151210161 0.68152313865721 0.0542808366008104) 12 2 2
(0.230736442841585 0.387921949848532 0.0309679405763768 0.350373666733507) 12 20 1
(0.100043772719804 0.622229263186453 0.223761094734074 0.0539658693596686) 12 20 2
(0.405230992008009 0.0601139380596553 0.213843761943279 0.320811307989057) 13 24 1
(0.292153043206783 0.150038043037061 0.253829881548881 0.303979032207275) 13 25 2
(0.0406675306148828 0.38665134087205 0.357555672526363 0.215125455986704) 13 1842 2
(0.0639929375611249 0.189211584627632 0.546853410545733 0.19994206726551) 13 2496 1
(0.709196658805013 0.0315351900644602 0.213054703082889 0.0462134480476382) 13 2496 2
(0.312241398729381 0.0230576898902669 0.263208769727499 0.401492141652853) 13 4 1
(0.0320621645078002 0.599020178429781 0.0548867676407128 0.314030889421706) 13 22 1
(0.301191960461434 0.102184530813247 0.233077609445901 0.363545899279417) 13 22 1
(0.346124738454812 0.083244391251363 0.0916180172935085 0.479012853000316) 14 26 1
(0.402750298846499 0.0607062615454265 0.285163598600783 0.251379841007292) 14 26 2
(0.39163156365976 0.265872810501604 0.115305452141909 0.227190173696726) 14 27 2
(0.0544691663235425 0.71332621108741 0.173796129412948 0.0584084931760999) 14 1866 1
(0.633576569613069 0.102214275393634 0.171871300786731 0.0923378542065651) 14 1866 2
(0.0081046139821408 0.113225884269921 0.668605127837511 0.210064373910427) 14 1866 2
(0.0412395163439214 0.0746917235665006 0.25413853209466 0.629930227994918) 14 2520 1
(0.0743536022491752 0.530085615348072 0.241212408524007 0.154348373878746) 14 2520 1
(0.682191357016566 0.0704330019652831 0.160704904701556 0.0866707363165947) 14 6 1
(0.544457027222965 0.246617146767674 0.188921814318747 0.0200040116906147) 15 28 1
(0.0544135752133977 0.259113761130723 0.340733982622627 0.345738681033253) 15 29 1
(0.0560076911933757 0.179017181508238 0.144448187667875 0.620526939630512) 15 29 2
(0.0791012961417438 0.455924729350956 0.188922108151014 0.276051866356285) 15 1890 1
(0.101568458136171 0.418490636162465 0.401829843409361 0.0781110622920035) 15 1890 2
(0.583661736454815 0.0396872875280717 0.376576207578184 7.47684389294823e-05) 15 2544 2
(0.374622262082988 0.528062744997447 0.0234864428639389 0.0738285500556261) 16 30 1
(0.353603498544544 0.251310359686616 0.0178007339127362 0.377285407856104) 16 31 2
(0.405264861416072 0.377691289409997 0.20260893553495 0.014434913638981) 16 1914 1
(0.073246610350907 0.189753132406624 0.0541426753625282 0.682857581879941) 16 1914 2
(0.0130551452748479 0.260445193853232 0.308970433659853 0.417529227212067) 16 1914 2
(0.267870638985187 0.105108347721394 0.154358108527965 0.472662904765455) 16 2568 1
(0.281497983727607 0.170279217883943 0.388592284638438 0.159630513750012) 16 10 1
(0.415524868760253 0.118589723017072 0.194862398318944 0.271023009903732) 16 10 2
(0.325923868920652 0.0946574313566064 0.330498358700425 0.248920341022316) 16 28 1
(0.156526114791627 0.139672462362799 0.554288861807433 0.149512561038141) 16 28 2
(0.229699870571494 0.399747314397247 0.325304826255882 0.0452479887753763) 17 1939 1
(0.190183641389012 0.423992603551602 0.0693464325740885 0.316477322485297) 17 1939 2
(0.560413042549044 0.0455665159970532 0.271115289069715 0.122905152384188) 17 2593 2
(0.0556788174435455 0.0605786689557174 0.844938187394289 0.0388043262064478) 17 11 2
(0.28050705697387 0.350280814804133 0.00709771830588797 0.362114409916109) 17 30 1
(0.510780768003329 0.0262498655356398 0.325595240574332 0.137374125886699) 17 30 2
(0.307363209314641 0.097855103667827 0.426566789392386 0.168214897625146) 18 33 2
(0.378802641760558 0.296376194339245 0.24266446242109 0.0821567014791073) 18 1592 2
(0.154294692445546 0.00416732393205419 0.675021870527416 0.166516113094984) 18 2246 1
(0.0218479186296465 0.544530573766675 0.0397733277641229 0.393848179839555) 18 2246 2
(0.0519343051128117 0.499555356334893 0.330648434814066 0.117861903738229) 18 2629 1
(0.162079921457921 0.25768232392147 0.13736544549465 0.44287230912596) 18 2640 1
(0.115366602316503 0.446977360174057 0.38110938016325 0.0565466573461901) 18 2640 2
(0.169759438838809 0.470903859473765 0.151429228950287 0.207907472737138) 19 35 2
(0.0896668368950471 0.874881585128609 0.0225003268569716 0.0129512511193724) 19 36 2
(0.3735376810655 0.234232155606149 0.0147440144792214 0.37748614884913) 19 1614 1
(0.52000513905659 0.119095829781146 0.256513440981508 0.104385590180755) 19 2630 2
(0.188492495566606 0.00333448033779755 0.237939568702132 0.570233455393464) 19 33 1
(0.528928092215209 0.17491865111515 0.267762365285309 0.0283908913843316) 19 33 2
(0.0102449418045645 0.713378902059044 0.2302502556704 0.0461259004659919) 20 37 1
(0.860329976305362 0.0282468637451549 0.032033216208223 0.0793899437412605) 20 38 1
(0.169607880525291 0.324334144126624 0.322585100773724 0.183472874574361) 20 38 1
(0.170459099113938 0.152542764786631 0.52945647435263 0.147541661746801) 20 38 2
(0.0398640660569036 0.30708988802508 0.246170439291747 0.40687560662627) 20 38 2
(0.044711939524859 0.10745491599664 0.176294035278262 0.671539109200239) 20 1636 1
(0.204146051779387 0.387377507984639 0.292774562258274 0.1157018779777) 20 2631 1
(0.168451549019665 0.443582570180297 0.304335130378608 0.0836307504214301) 20 35 2
(0.0843624351546117 0.452559749595823 0.411760827992117 0.0513169872574483) 21 39 2
(0.484438789542768 0.210168609861283 0.241221492644399 0.0641711079515503) 21 40 1
(0.54394642123953 0.0293266535736605 0.336661264766005 0.0900656604208042) 21 40 2
(0.358884067740291 0.160962220281364 0.148974868468939 0.331178843509406) 21 1658 2
(0.212086702696979 0.0865205959416924 0.012990920804439 0.68840178055689) 21 2312 2
(0.771283296868207 0.113432597368955 0.000336444936691954 0.114947660826147) 21 2632 2
(0.0344535629265039 0.0212204987183198 0.266333351377395 0.677992586977781) 22 41 2
(0.0476277163252236 0.434960167855027 0.224187260493636 0.293224855326114) 22 1680 1
(0.0966146374121308 0.0742474966682469 0.674307568464427 0.154830297455195) 22 1680 2
(0.0542385457083583 0.445424344856291 0.299017945770179 0.201319163665172) 22 2334 1
(0.399463246576486 0.0740694226697109 0.311352519784122 0.215114810969682) 22 2634 1
(0.058544189203523 0.274307554587726 0.347127277404077 0.320020978804674) 22 2634 2
(0.111136183142668 0.310941902920601 0.060148967895654 0.517772946041077) 22 39 1
(0.202653909102087 0.459697550162671 0.0857697506435195 0.251878790091723) 22 39 2
(0.28450904553755 0.0893849185668043 0.537361384369428 0.0887446515262185) 23 43 1
(0.211796722374857 0.451179514639079 0.0265939533710481 0.310429809615016) 23 43 2
(0.792731736321003 0.0243241516873239 0.0350484498776486 0.147895662114025) 23 44 1
(0.217242180835461 0.716553566511718 0.0506633329205189 0.015540919732302) 23 44 2
(0.138343969359989 0.264190246351064 0.201161107048395 0.396304677240553) 23 44 2
(0.513192610349506 0.19059758493677 0.0253118788823477 0.270897925831376) 23 1703 2
(0.818277212325484 0.0210032877512282 0.0768283847719417 0.0838911151513466) 23 2357 1
(0.475100327748805 0.348729083780198 0.0489292806014414 0.127241307869556) 23 2357 2
(0.684991083107895 0.117577022407203 0.0236218934878677 0.173810000997034) 23 41 1
(0.0262478003278342 0.0418776413425819 0.161261516157534 0.770613042172049) 23 41 2
(0.100248518399898 0.31716738129034 0.251078688073908 0.331505412235854) 24 45 1
(0.307936959434307 0.0466118995100227 0.536299971397967 0.109151169657703) 24 45 2
(0.456191160250453 0.132055436726661 0.393642417620869 0.018110985402017) 24 45 2
(0.383361112326384 0.102147277444604 0.30283079668879 0.211660813540222) 24 1726 1
(0.263802124653013 0.158826931379735 0.268060318194328 0.309310625772925) 24 15 1
(0.438363321125506 0.13827841542661 0.183252437971535 0.240105825476349) 24 15 2
(0.118061591405421 0.493594973348082 0.038218311965466 0.35012512328103) 25 1749 1
(0.245305702090263 0.0263151391409299 0.394889991730447 0.33348916703836) 25 1749 2
(0.443480652756989 0.445742436684668 0.0496261883527054 0.0611507222056378) 25 17 1
(0.686852701008311 0.0264199068769868 0.126183532644067 0.160543859470634) 25 45 1
(0.095264330040661 0.0320358183234943 0.534848596900701 0.337851254735144) 25 45 2
(0.0377786546014277 0.343148021958767 0.143808245193213 0.475265078246592) 25 45 2
(0.0831377520225944 0.161559771746398 0.249776310753078 0.50552616547793) 26 1772 1
(0.455207742284983 0.22221876680851 0.250301757827402 0.072271733079105) 26 1772 1
(0.46647198824212 0.0554541787132613 0.0139043671078979 0.464169465936721) 26 1772 2
(0.397255897987634 0.389445258770138 0.168645816389472 0.0446530268527557) 26 2426 1
(0.0307244332507254 0.294508672785015 0.26113763451576 0.4136292594485) 26 2426 2
(0.204380733892313 0.402248297818009 0.222869269084189 0.170501699205488) 27 51 2
(0.657141394447547 0.156310425139957 0.050190489739174 0.136357690673323) 27 52 2
(0.0340242590755208 0.59127747360617 0.321124322712422 0.0535739446058872) 27 52 2
(0.745756484102458 0.170075139962133 0.0654341094195847 0.0187342665158243) 27 1795 1
(0.0392069141380488 0.156175647396595 0.441930265165867 0.36268717329949) 27 2449 2
(0.452064108103512 0.0152329965494583 0.251026322133844 0.281676573213186) 27 21 1
(0.111587362363933 0.444760203361511 0.0943045946769432 0.349347839597614) 27 21 2
(0.604464740026744 0.12050861539319 0.0753871393389993 0.199639505241067) 27 49 1
(0.223199640400701 0.076419464312495 0.00579931726679521 0.694581578020008) 27 49 1
(0.437557698693116 0.173683765809988 0.248476874548945 0.140281660947951) 27 49 2
(0.11733039980754 0.374867810402067 0.235773620661346 0.272028169129048) 28 53 2
(0.371888309717173 0.219878489151599 0.310232568066567 0.09800063306466) 28 54 1
(0.0134018347598622 0.401601393241438 0.232552002649754 0.352444769348946) 28 54 2
(0.0228811101988032 0.162918245419856 0.0824095760472084 0.731791068334132) 28 23 1
(0.392330731730902 0.483214287552982 0.0209679547697347 0.103487025946382) 28 23 2
(0.49281745124608 0.276572802569717 0.18338343827054 0.047226307913663) 28 51 1
(0.0129553275182862 0.685921413823961 0.248977919574829 0.0521453390829236) 28 51 2
(0.0474333870224625 0.493653420824559 0.0481817098334473 0.410731482319531) 29 56 1
(0.169187287334356 0.524368979036802 0.278350711334495 0.0280930222943473) 29 56 2
(0.281393222045153 0.24006614321843 0.229731924366205 0.248808710370211) 29 1843 1
(0.108533771242947 0.361009631305932 0.323068797122681 0.20738780032844) 29 2497 2
(0.0853225397877327 0.0215039695613121 0.18436996545643 0.708803525194525) 29 25 1
(0.111984330695119 0.407986687496306 0.312375098932534 0.16765388287604) 29 25 2
(0.408933175262064 0.107094673439857 0.419729990884655 0.0642421604134238) 30 1867 2
(0.104205816518515 0.2778538716957 0.141299305483703 0.476641006302082) 30 2521 2
(0.354221802204848 0.103767035063359 0.177374434657394 0.364636728074399) 30 2521 2
(0.37852986436337 0.200742719694973 0.175526206847277 0.24520120909438) 30 27 1
(0.341451543848953 0.1615665354766 0.379042258486154 0.117939662188293) 30 27 1
(0.00255750864743576 0.318789896555245 0.461973645724359 0.21667894907296) 30 27 2
(0.492722447030249 0.284054212272166 0.0277436915785058 0.195479649119079) 30 55 1
(0.0504580182023306 0.305515138432389 0.415131185669454 0.228895657695827) 30 55 1
(0.323607925325621 0.278003066778185 0.345030957367275 0.0533580505289195) 31 59 1
(0.0716539747081747 0.10685441782698 0.242214556317775 0.579277051147071) 31 59 1
(0.0289774592965862 0.358031589537858 0.417115409392865 0.195875541772691) 31 60 1
(0.250927473884076 0.177034816239028 0.330172226764263 0.241865483112633) 31 1891 1
(0.197429953608662 0.224405485205349 0.134487674105913 0.443676887080076) 31 1891 2
(0.00945505779236577 0.875627939589323 0.0530436113476764 0.0618733912706348) 31 2545 2
(0.097207203041768 0.0220744609832735 0.587055347859862 0.293662988115097) 31 57 2
(0.151028087828316 0.532337983138853 0.0620007859542989 0.254633143078532) 32 61 1
(0.163444535806777 0.430446302518248 0.219976223539565 0.186132938135411) 32 61 2
(0.390799444634468 0.0611747754737752 0.346148706506937 0.201877073384819) 32 62 2
(0.317348779179156 0.45414113812149 0.0228128936141697 0.205697189085184) 32 1915 1
(0.0309829846955837 0.34883037209511 0.545719378162168 0.0744672650471382) 32 1915 2
(0.219085504300892 0.166884235106405 0.457741765305402 0.156288495287301) 32 2569 1
(0.34092381875962 0.210357771720731 0.0139183611609032 0.434800048358746) 32 2569 2
(0.259525214321908 0.275737765245141 0.099891053512694 0.364845966920257) 32 31 1
(0.196415949612848 0.396503134164963 0.147030155174433 0.260050761047755) 32 59 2
(0.0259432252496452 0.156734852585944 0.737905120477082 0.0794168016873289) 33 63 2
(0.307081201113761 0.0588068263605256 0.191976949106897 0.442135023418817) 33 1940 1
(0.2104333457537 0.106641872785985 0.385792695917187 0.297132085543129) 33 2594 2
(0.13240059744567 0.0625135703012367 0.618619166314598 0.186466665938495) 33 32 2
(0.264203585218647 0.282859646249557 0.299080780707295 0.153855987824501) 33 61 1
(0.365087049081918 0.408324331045152 0.0297468826174725 0.196841737255457) 33 61 2
(0.539448612369591 0.27016737731174 0.176640692632646 0.013743317686024) 34 65 1
(0.0397464530542494 0.223032172303648 0.421433879993855 0.315787494648248) 34 1466 1
(0.247169204056267 0.135691190138456 0.18582004774362 0.431319558061657) 34 2635 1
(0.0754137844778608 0.837454789318144 0.00278814788907852 0.0843432783149169) 34 2635 2
(0.0979875009506942 0.433751444797963 0.206853536423294 0.261407517828049) 34 2635 2
(0.248432374093687 0.529379341751334 0.172432432882489 0.0497558512724899) 34 2647 1
(0.402949554380024 0.408136363606903 0.0729502052999967 0.115963876713077) 34 2647 1
(0.216841692570596 0.0755652366206064 0.0575131373479969 0.650079933460801) 34 2647 2
(0.0496952622197553 0.485879141371701 0.0856889835558806 0.378736612852664) 35 66 1
(0.337470869533719 0.0964004280976945 0.501748385373498 0.0643803169950885) 35 66 2
(0.328984450548883 0.540445033926519 0.126597347203644 0.0039731683209532) 35 67 2
(0.223431406542659 0.00260357465595019 0.0765818273648619 0.697383191436529) 35 1487 1
(0.189470632933072 0.696979905944321 0.0450912541709793 0.0684582069516268) 35 64 2
(0.170539231039589 0.104932805057612 0.373979644384234 0.350548319518565) 36 68 2
(0.289849502965809 0.0219703679904334 0.413496186025443 0.274683943018315) 36 69 1
(0.203497203998264 0.0553090344183174 0.0686451056972135 0.672548655886205) 36 2637 1
(0.150206497870376 0.755519683007155 0.0500504882074883 0.0442233309149799) 36 66 2
(0.167948953341696 0.194087364710865 0.25128212990239 0.386681552045048) 36 66 2
(0.0643046000041014 0.134773847181349 0.392015418037776 0.408906134776774) 37 70 1
(0.158188026398415 0.545672665815803 0.159808608703317 0.136330699082465) 37 71 1
(0.120039655361323 0.357700255699458 0.244340661447496 0.277919427491723) 37 71 2
(0.166237601079047 0.250170901883398 0.201546686235811 0.382044810801744) 37 1529 1
(0.181076806969941 0.133996076881887 0.536901365965604 0.148025750182569) 37 1529 2
(0.128251250833273 0.0316355498507607 0.62774028722197 0.212372912093997) 37 2183 1
(0.012567775789646 0.749646418727931 0.0515190958976792 0.186266709584744) 37 2638 1
(0.3394058435224 0.0212408383376892 0.0367008130997416 0.602652505040169) 37 2638 2
(0.168639855459329 0.49072309350595 0.0765870641917006 0.26404998684302) 37 2638 2
(0.0692399409599558 0.237530989572411 0.0626004049554489 0.630628664512184) 37 68 1
(0.239592350088061 0.151028553955256 0.424989233724774 0.184389862231908) 37 68 2
(0.0583753772079977 0.272677573841064 0.262001362629232 0.406945686321706) 38 72 2
(0.0208054273389306 0.394116719719021 0.310748575255272 0.274329277686776) 38 73 1
(0.072244117502119 0.691716795787214 0.184364160057159 0.0516749266535075) 38 73 2
(0.0327957766130567 0.120598927605899 0.250109227374193 0.596496068406851) 38 2204 1
(0.319458651356399 0.38087626127526 0.0910554896108827 0.208609597757458) 38 2204 2
(0.503787984605879 0.0373274674639131 0.12422149721533 0.334663050714878) 38 2204 2
(0.168518007267264 0.537853149231524 0.0325243640691047 0.261104479432107) 38 2639 1
(0.187984900549052 0.203281236346812 0.0272659100592134 0.581467953044922) 38 2639 2
(0.222547995857894 0.352898941840977 0.172570959199216 0.251982103101913) 38 70 2
(0.0566745651885817 0.70992892468348 0.160861065145586 0.0725354449823523) 39 74 1
(0.542295497376463 0.0432220697402997 0.349920649547133 0.0645617833361041) 39 74 2
(0.0798608986660837 0.770280674099917 0.146204805467282 0.00365362176671668) 39 1571 1
(0.270172474905849 0.445354558993132 0.284284528344869 0.000188437756150491) 39 1571 2
(0.332642630673945 0.251402314286676 0.367963920813057 0.0479911342263218) 39 2225 1
(0.187063649762422 0.598916981369259 0.0650777737610029 0.148941595107316) 39 2225 2
(0.0160779743455314 0.700888834428044 0.166932933963837 0.116100257262587) 39 2641 2
(0.041932846419517 0.16397886071354 0.498061887454241 0.296026405412702) 40 76 1
(0.000326098874204983 0.06135294446722 0.259055418428036 0.679265538230539) 40 77 1
(0.332689212169496 0.316728168632836 0.0733907963149243 0.277191822882743) 40 77 1
(0.0489357761107382 0.211009096819908 0.481851147953421 0.258203979115933) 40 77 2
(0.265393960755319 0.380464735440909 0.136541469022634 0.217599834781139) 40 1593 1
(0.00174097111448657 0.135585309937601 0.853018343914305 0.00965537503360707) 40 1593 2
(0.458380506373942 0.124831680674106 0.244320125784725 0.172467687167227) 40 2247 1
(0.347555287182326 0.034749666228893 0.584453942719844 0.0332411038689376) 40 74 2
(0.107166327536101 0.411301642190668 0.3823178736493 0.0992141566239318) 41 78 2
(0.17227755440399 0.108986902981997 0.102863485459239 0.615872057154774) 41 79 1
(0.106796254403886 0.316313615534457 0.132006086874755 0.444884043186902) 41 79 2
(0.613039062358439 0.122547232545911 0.0296022286638621 0.234811476431788) 41 1615 2
(0.217149015981704 0.111951980274171 0.311998900491743 0.358900103252382) 41 2269 1
(0.0394827588461329 0.462222907692195 0.332798804156481 0.165495529305192) 41 36 1
(0.760535159613928 0.17533715069294 0.00183159438893601 0.0622960953041957) 42 80 1
(0.170624473597857 0.113096889574079 0.395509570371359 0.320769066456704) 42 81 1
(0.392022494226702 0.0264500640332658 0.568153000436724 0.0133744413033078) 42 81 1
(0.334313583560288 0.146360309794546 0.347033758647739 0.172292347997427) 42 1637 1
(0.0969976312480868 0.458255010657015 0.164525412954389 0.280221945140508) 42 1637 2
(0.449111360125244 0.114383319392803 0.384698338340972 0.0518069821409816) 42 1637 2
(0.0698018227703867 0.346254646778105 0.50807467289269 0.0758688575588192) 42 2291 2
(0.424624538514763 0.219900284893807 0.243340642191469 0.11213453439996) 42 2291 2
(0.0161584117449834 0.134265753906219 0.16345295822248 0.686122876126317) 42 38 1
(0.0714551131241047 0.658147542271764 0.19146571913734 0.0789316254667917) 42 78 1
(0.226004790980376 0.0164815355092249 0.413856221828609 0.343657451681789) 42 78 2
(0.394583818968385 0.383285071235149 0.0626293965615333 0.159501713234933) 43 83 2
(0.362976401112974 0.102906652726234 0.512045735958963 0.0220712102018291) 43 1659 2
(0.102483116090298 0.108881485182791 0.113966357428582 0.674669041298329) 43 2313 1
(0.317073690239345 0.0711254621855879 0.411016318947078 0.200784528627989) 43 40 2
(0.0762911774218069 0.201999460346997 0.434676398988812 0.287032963242384) 43 80 2
(0.283346903044727 0.300406210124498 0.121689566411074 0.294557320419701) 44 84 1
(0.188325262628494 0.515281902626157 0.288489056285474 0.00790377845987434) 44 84 2
(0.586580913048238 0.00867992779240087 0.111410936806353 0.293328222353009) 44 1681 1
(0.162413543090219 0.669767664279793 0.028430038131772 0.139388754498216) 44 42 2
(0.210744257085025 0.227823294233531 0.0646784943528476 0.496753954328596) 45 86 2
(0.518599165603519 0.106089179404085 0.303091811947524 0.0722198430448721) 45 87 2
(0.146540279034528 0.59171456703916 0.205516087356955 0.0562290665693567) 45 44 1
(0.128142799250781 0.363637502770872 0.407261022366582 0.100958675611764) 45 44 2
(0.22120685642585 0.12247647996992 0.641001672949641 0.0153149906545897) 45 84 2
(0.147495878394693 0.210058568511159 0.371427655220031 0.271017897874117) 46 1727 1
(0.503521509468556 0.23825327027589 0.0314107541926188 0.226814466062936) 46 1727 2
(0.382905987091362 0.210358766373249 0.275887553114442 0.130847693420947) 46 1727 2
(0.201878125779331 0.550529348198325 0.154333161655814 0.0932593643665294) 46 2381 2
(0.171195511240515 0.158898528199638 0.0340994182042812 0.635806542355566) 47 90 1
(0.451777158770711 0.26129539636895 0.133140704594552 0.153786740265786) 47 91 1
(0.295758203603332 0.509380776435139 0.0451784254983045 0.149682594463225) 47 91 2
(0.048214527312666 0.320929121691733 0.356680171564223 0.274176179431379) 47 1750 1
(0.223297113087028 0.526505857240404 0.169494919944552 0.080702109728016) 47 2404 2
(0.151510838419199 0.238215674180535 0.05298698041588 0.557286506984386) 47 2404 2
(0.638533998746419 0.00158214615658196 0.308163993060595 0.0517198620364038) 47 48 1
(0.0588168138638135 0.205529168713839 0.180360422469675 0.555293594952673) 47 48 2
(0.156460392754522 0.501193451695145 0.0435953303240247 0.298750825226308) 47 48 2
(0.331552069168525 0.126283546444032 0.263406268320981 0.278758116066462) 48 92 1
(0.445762644987559 0.339837696868923 0.0589486067183293 0.155451051425188) 48 93 1
(0.655346672516316 0.0208399370312695 0.295613741036507 0.0281996494159069) 48 2427 1
(0.0357171171344836 0.325356210116296 0.192672043573113 0.446254629176108) 48 50 1
(0.203244603704661 0.0604808041825894 0.0155697138980029 0.720704878214747) 48 50 2
(0.0150357368402084 0.263422352727509 0.237113702110951 0.484428208321331) 48 90 1
(0.331287225708369 0.0520915999077245 0.0265683690086015 0.590052805375305) 49 94 2
(0.422827473841607 0.184345870278776 0.152293358929455 0.240533296950162) 49 95 1