/*--------------------------------*- C++ -*----------------------------------*\
  =========                 |
  \\      /  F ield         | OpenFOAM: The Open Source CFD Toolbox
   \\    /   O peration     | Website:  https://openfoam.org
    \\  /    A nd           | Version:  7
     \\/     M anipulation  |
\*---------------------------------------------------------------------------*/
FoamFile
{
    version     2.0;
    format      ascii;
    class       vectorField;
    location    "0/lagrangian/dsmc";
    object      U;
}
// * * * * * * * * * * * * * * * * * * * * * * * * * * * * * * * * * * * * * //


5220
(
(1674.22987094669 -116.607355638497 -310.964845530361)
(1985.61001545221 272.25241175922 56.1035857669091)
(1618.23869619262 -145.042412335937 38.8544349428813)
(1953.65812525301 311.604251193569 -16.1809638467904)
(1610.65664236031 194.737350526201 43.9151003598067)
(1563.67385153825 426.20052386835 -382.269461877884)
(1906.41514736923 104.7200609952 211.05266429654)
(1668.38297876564 250.216690253944 -20.1646787073184)
(1432.99969605667 219.037523222927 -280.156690089394)
(1356.9677554326 -16.7537659073492 294.046152172686)
(1976.3475538756 -187.568405490959 -98.0674278675605)
(1650.08050334543 -295.089475463883 -84.7581709030822)
(1583.66555607613 -123.66560119025 367.658791779998)
(2208.7730025062 -571.101620783674 156.144190959363)
(1567.64930403278 77.4046527464386 -288.555120013387)
(1775.1504985038 190.896310176319 -271.412325612246)
(1900.94209283037 316.420542983874 300.589080353529)
(1912.26509023642 58.9352539015239 100.400158598573)
(1614.18549656893 -247.884203456044 354.965275219371)
(1878.8165347554 179.087094581511 467.391851436839)
(1739.68675282717 76.3401234552482 -270.877042970916)
(1693.08670185783 53.2219787058258 -81.5836111619071)
(1735.0153612211 264.979691811151 90.0853413758652)
(2079.73257022724 -32.3440198814772 55.1853780707842)
(1366.14442455533 -53.196887851458 -574.323627390971)
(1946.03831827764 43.1859293776406 89.194084718814)
(2215.01026894063 281.821804562561 -352.983151094132)
(2161.52782667237 -79.6163934847854 231.173380793171)
(1350.38304483898 -244.760157996718 -253.15361590901)
(1987.76470455542 -165.350918983368 356.817717390874)
(1143.30793042685 -588.10459733432 604.091051012608)
(1964.55598011402 -386.128807282542 -213.64354216705)
(2260.5762600612 -122.338482499506 -640.951724579993)
(1858.84886138237 135.751948058879 3.16028679339871)
(2108.68149074866 -127.291695722286 196.008840006588)
(1721.80892701889 -45.0749427982382 6.22731457314374)
(1753.28637655965 77.1001324667407 273.143438711907)
(1671.65573411707 69.1177928467206 57.278659574927)
(1708.85872303108 -76.1312717000132 317.41967903973)
(1845.31569959623 -222.699212077272 -34.062008334617)
(1671.99889009818 -40.730410054808 288.278282623077)
(1428.10102208235 -297.46293710319 -446.557425381072)
(2027.7599589568 -76.1592716925287 -425.235099154358)
(1697.69459914052 517.034026246147 291.246145941579)
(1519.13614683094 134.829110852508 756.734560891657)
(1864.69133990236 -190.330783897176 -6.77838812544328)
(1951.843417772 116.894049318804 330.160474906663)
(2096.60923879147 83.3724073742962 84.7659961954722)
(1407.46582183894 75.9555922514485 2.8669430607166)
(1775.05378426656 -315.464751155311 -76.4326908369259)
(1651.27183848165 140.823839411154 -47.0149380967832)
(2034.68881747232 410.797799501195 738.821605342045)
(1813.38105373986 -149.882974360832 1.41946429940782)
(1825.45573020731 -128.290172340599 -360.74291382938)
(1802.11435773098 70.6452934110275 206.782631101494)
(1473.46583196162 -187.040604133302 -97.8209655092518)
(1540.15374476115 70.9756043436576 258.579762573237)
(1764.26737895952 76.9790092793746 41.7797679003584)
(1696.84288203536 -0.353344005675193 -121.9044271335)
(2112.68655623087 511.708295712852 -201.397550089621)
(1934.29729347827 185.745007861461 380.170894056011)
(1494.12070827008 -173.816090146025 -108.012644560635)
(1900.6910717823 -107.62634369532 220.738757567943)
(1468.93539088383 219.277149910129 -10.7696636311349)
(2098.31699665356 -267.334202986812 319.33413071731)
(1781.66612637973 -334.115550735586 37.6732131341212)
(2127.73029441333 135.596629224662 -144.961521771334)
(1677.29820787071 -300.974388695658 -380.86839384859)
(1760.14049804046 -486.789836044808 -219.785310533478)
(1486.19045992848 -30.3634046524579 -118.250330349773)
(2201.86532457035 29.9271359256692 210.094919469869)
(1770.97723046859 789.336360527722 668.305721140804)
(1258.08627043655 182.210540105057 -498.842680799802)
(2058.20094527743 -166.840771587139 -47.5749244309948)
(1435.9914522475 -22.5521515047595 293.707440331488)
(2028.01037879852 -148.673857850824 -135.815099223297)
(1787.76359827046 -325.386199081268 250.758504807054)
(2474.73058536474 -83.5749363108243 46.1613332304928)
(1518.94898618186 -29.2220653958812 -137.438166909498)
(1266.19795292048 167.582792155022 104.984545013418)
(1606.81879687045 46.8569648082785 24.7671824930778)
(1663.72211961917 -60.9290962218077 310.478678278956)
(2024.20302346206 -502.738385283024 -313.792562205644)
(1471.95742525534 -170.541366920385 511.212634756859)
(1244.94383223781 -52.0797826734993 42.4440142260633)
(1793.46267782955 116.220182326483 234.250946454603)
(1803.36936683631 494.654915982257 244.236523705425)
(1853.30947921544 328.217736616602 292.919622542652)
(1808.04060965425 130.307541487397 -73.0466063695178)
(2498.23167998963 84.4428961125532 -83.0438232267006)
(1406.94098803037 -178.669904257617 -393.894338221116)
(1943.8831002261 523.081602205276 294.308275107979)
(1941.41297209231 -376.226035605891 262.981758755405)
(1388.69849113018 44.5826428992341 156.781207813009)
(1479.48988631185 391.767520590935 566.046925086085)
(1456.0491720494 525.707335450775 -154.094715258036)
(1892.27053837562 -50.1859275155968 -268.194305981649)
(1841.82572509433 274.212054603001 -291.628137072207)
(1289.48896775301 227.84067128627 -711.773990634157)
(1906.1152569197 105.965212434367 76.3510058086212)
(1854.37835717631 -578.744497764948 193.501089458158)
(1798.9050663582 180.914914864476 415.14181362944)
(1860.09135514855 -248.722840648448 -225.484332242673)
(1782.02771298301 305.065635506202 -11.1721244439258)
(1760.81802279871 319.481645709095 120.821223334671)
(1518.05656857536 116.41314853992 -111.590147955739)
(1530.56018196595 130.312573530029 -17.8902148794531)
(1875.39364031758 272.638478259748 -258.953296288537)
(1837.8886768832 -25.5891746964959 -146.41630983719)
(2131.22610311167 -55.5696207912945 317.550165376092)
(1346.36686178326 119.367223295921 49.6224880813105)
(1947.43982360105 263.724956228564 -655.825342650691)
(1545.9676137934 -230.240891408862 38.8618139230009)
(1818.77734176946 -426.796488322644 207.600807768667)
(1719.55280968853 102.186909311362 2.00708345008281)
(1497.11061840056 66.2376592933122 -47.5906723782064)
(1998.17970615989 140.965430212919 -277.068013375969)
(1800.16628651386 448.606837146333 -565.08477425722)
(1842.54285253758 564.096266673384 255.455123114749)
(1858.55311655755 266.068797562387 144.221223324243)
(1836.75136910831 -195.044447682529 50.1467520283868)
(1190.14879941005 -203.801205934763 -13.1885632544525)
(1968.98503645949 528.212312737655 -19.8669801858175)
(2066.55283334281 -178.346706638758 -445.772520568496)
(1510.66130395519 -134.648713730155 448.551248630085)
(1799.10171460049 316.892748625461 225.680109324588)
(1674.44610752989 -187.199323323073 121.000767967023)
(1417.7915953002 -297.589921945764 -428.425588208466)
(1615.33424191919 -23.9588070590427 363.548187209449)
(1843.2502066759 -233.837417654644 -210.6264919421)
(1676.72774530302 196.966222212818 212.635920652176)
(2040.95047534939 -207.893753146491 658.336965040532)
(1570.68739842182 26.8078724074717 -218.809807669387)
(1050.19574220294 -164.375098112618 -360.952451581387)
(2134.16547186063 182.711013513739 566.739038383839)
(2049.96378730444 -219.265397251076 -286.998837189368)
(1664.71168354537 683.29139599914 -264.011421850598)
(1849.41823566183 -224.244193075359 -192.411786245654)
(1446.43676879899 45.8472807759024 -226.414218461762)
(1672.45605779384 -430.739883481999 131.748211370657)
(1652.88525344765 418.957555992084 341.854454462454)
(1083.25339245584 123.61328701881 -252.576374742211)
(1606.37748788552 538.732390712932 124.816416590128)
(2228.73439353672 37.3322981065868 -259.698601301588)
(1778.36264275768 -843.44238171404 -131.897754990276)
(1466.60060238063 -523.620407518801 61.1020318001149)
(1823.75687945656 102.806369807832 128.463941853312)
(1989.65469858107 -354.471935387211 -212.800914323984)
(1889.27353742682 -164.06927732904 552.467153858164)
(1868.53554517276 385.838929300634 113.001773034538)
(1606.47936040239 265.709577358375 -307.492673461227)
(1635.57895987511 157.771101297883 371.60736213105)
(1810.31901159117 -141.805960958434 152.884696392153)
(1426.48349936754 -84.6868839619216 -12.588002381208)
(1958.57253088716 -261.790563302478 27.1558656749546)
(976.025170120903 -255.496848731255 382.339387676377)
(2076.55101752673 -48.4226836868519 166.859309630128)
(1669.58664431252 91.9946647227214 435.250672458156)
(1313.84621757315 336.948114507585 195.414001120332)
(1148.59630055847 135.742513508413 206.774799354914)
(1620.81123306737 36.6511197488421 -50.6542690778426)
(1987.26234158624 115.860490710841 -520.549224847129)
(1757.44368629451 -181.113955904714 -34.9403656522406)
(1582.95760752157 -264.85509923628 -8.05660307500309)
(1374.42341318621 -318.542411031889 -117.892721314794)
(2110.54788409847 426.170776731607 305.056258950024)
(1404.15357145072 -503.149270661943 107.379087455036)
(1681.76250559454 -282.907587232145 -380.797059446036)
(2020.45562810666 -79.1748351648476 61.7004112590545)
(1801.2774588595 -422.964851717288 409.405767357074)
(1817.46238684588 164.851045514699 -521.806576390358)
(1294.77921313545 -263.800053556126 -94.4078244278514)
(1607.31760130624 -85.3766988358359 -228.052413337722)
(2072.54882635844 -21.1528855155296 -417.122622542531)
(1581.40270174962 -581.888257669325 163.270612456029)
(1297.00659274162 231.474543909422 -193.644605210427)
(2062.42477038845 365.097616890441 -46.2880113462749)
(1813.76163981197 57.8777164839486 -106.273065496103)
(2790.00146668822 -114.587301849357 217.101447823345)
(1709.0527598092 140.859400535648 350.049873519594)
(1982.96962933742 -106.251388970443 130.210076056518)
(1532.9981119326 165.304549959141 -352.280387895772)
(1689.33483563187 -165.455938778019 35.3640299347655)
(1719.50208645834 -122.892397996733 -160.383515526687)
(1935.12131175901 -24.1699969824665 -13.9226625608689)
(1395.0287516049 -256.28350251292 -30.5639266432953)
(1340.81616110321 63.8214684754168 557.781641884938)
(1899.28547267319 -201.574321113632 -104.576917129683)
(1479.83238797552 -135.097678994159 -379.46616412333)
(2156.75032318252 113.730425809067 243.50881600887)
(1609.2871325649 -371.800349407542 66.3654537349681)
(1105.8961338236 -40.5372324418728 -261.60964723932)
(1688.10689584002 680.868143156928 431.778733318385)
(1634.2985330407 -505.159508345151 482.604792138526)
(2036.31581934107 -31.538745567254 -272.734355280944)
(2117.33245109107 -324.571113654335 446.87896821314)
(1780.0287130074 -390.590649147684 253.675420670714)
(2454.24072430184 -178.455756960478 -157.880325389521)
(1605.08137570422 345.452048701421 -585.450197547333)
(1610.13606038735 341.738046559241 -149.138376942181)
(1743.92291370526 71.4436044119299 465.164396339516)
(2053.52480117978 157.915665862793 484.891591323209)
(1472.6383560701 -354.847093422413 71.3873081008794)
(2157.61336991913 44.2297149708957 173.652121568378)
(1553.2833402988 -169.367230116435 -187.500373317598)
(1597.60260226368 -193.663398868283 -377.406337365106)
(1754.61553462394 93.1445288775975 -170.384364685865)
(1240.37209589614 -242.019107385977 -283.495512850299)
(1864.97691924895 -461.573080072693 69.5977586827686)
(1524.66202040784 -2.44831842332903 -608.910879931716)
(1529.86351769179 158.272876734266 -229.4754805153)
(1316.13524710475 -523.48335120105 -105.265134763448)
(1635.1062730055 766.731773868127 116.243112832627)
(1474.03023812207 -191.177379522165 -193.02072439632)
(1496.74869471501 -347.121032730442 -741.286344333147)
(2241.64271476578 252.319548137741 -504.313887996833)
(1777.58891008165 527.705533611811 -268.975440149076)
(1769.27852244999 -203.992883153589 -522.008260277412)
(1572.01952411399 108.561459915236 369.606832119452)
(1769.10929804069 -104.91921656048 -620.354817370498)
(2289.75311912679 -178.554590413039 -46.7467282078884)
(1504.9734268761 -126.98583662619 -88.8914694452724)
(2098.82689007276 312.049618971415 -270.112452375558)
(1767.53263290915 -3.5651247841886 78.7104046534876)
(1306.1166767439 -88.6895242901788 -148.867444874179)
(1836.03882302843 -107.797125904893 162.269804433569)
(1218.96908085549 -125.455450944545 -362.239188142676)
(1750.04993402139 300.606313343579 7.58711021892027)
(2025.27094699097 120.574843519523 200.115910788903)
(1581.92121151541 -346.227834752252 -294.719366692633)
(1595.55844158677 -59.4438210433488 373.591456221394)
(1400.77348414015 40.9343534675365 -0.723547603070957)
(1631.91605583115 -397.616480766737 -67.3919434846198)
(2133.05184531141 -218.280784842411 -228.80429886317)
(2392.11485063329 323.220085051747 293.708696788969)
(1459.51379420443 612.301453848077 321.995670525805)
(2078.32553433659 436.789730308954 257.245319127093)
(1972.72966277803 -88.9368558767613 -173.575464934364)
(1016.83986318486 107.634841958609 273.639610763414)
(1502.68624659468 130.862700271479 205.01378975895)
(1904.19355478153 194.914474426433 322.60947502334)
(1872.58450204097 758.668212569174 -200.783683727035)
(2263.98330856077 -172.013415828036 226.495420885221)
(927.546178604796 132.065914202535 -46.2023555915415)
(1603.34441305939 -366.230540523915 -157.26986586523)
(1329.39242940536 -334.448412205816 -129.960597104354)
(1499.73176189317 -162.167174296622 -342.104249988957)
(1658.0429080024 -422.720876097203 -677.262153313469)
(2162.82318027194 455.774112927537 -24.6332555816331)
(1122.5962168956 644.096660276922 10.4751472330198)
(1245.59895635523 -154.639052511702 -135.148983762692)
(1303.13896825653 -110.846212766158 -113.17082967564)
(1826.3625666586 117.145897796659 776.928250109855)
(1854.90736305 169.677490706809 -188.470068295771)
(1188.53026960269 187.735959552434 -31.3912637573549)
(1831.23775114397 -127.890745808414 -91.9395024972993)
(1840.12098933771 140.902058984678 18.9961978639714)
(1894.78508811255 -300.16482197893 -34.9513489112273)
(2186.52013068643 -124.362421698345 215.525280072189)
(1575.19619719092 234.682732456098 -655.353351603929)
(1852.89345257623 288.973349589161 125.816524879351)
(1840.44221025805 -142.963220389498 -906.64820513604)
(2244.74029923384 -68.4028402464038 206.760309573615)
(1412.71749642113 -254.21776939252 581.752890238606)
(1134.98916054191 70.2992746303754 76.5294258154508)
(2176.04229085261 -209.086448257956 -228.651793935508)
(1777.11722679269 398.743327880993 49.6914738399947)
(1684.35072747952 4.35982208570586 297.433599517288)
(1058.44669207348 -140.751652299917 361.839769671733)
(2102.09687476561 103.744437671466 449.712629149195)
(2241.63422373758 -519.126495522177 100.079298384329)
(1902.80373367115 342.701590647344 71.391878263285)
(1459.11739758728 90.5537869548938 487.860712108536)
(2036.21625946631 -207.014928232994 402.381799310334)
(1174.48718908911 -204.716496379953 226.400385427809)
(1602.47911326798 -371.431192887596 -271.510406324679)
(1863.26079968799 160.035178595213 -148.151429243836)
(1424.41640932437 -397.186823958559 169.323856168429)
(1701.92182331556 290.324570543444 -99.7527250524267)
(2381.55989497035 -17.2506498449638 -409.357297306685)
(1518.59432491767 319.384497851061 -78.612825404154)
(1836.87729567962 361.120583794684 -402.74105356828)
(1721.20580446218 100.104217166662 -208.087713200295)
(1307.38226962821 -405.070252843515 -237.401651109091)
(1418.95158339252 97.6231533807839 110.381036427728)
(1424.91547330449 -617.261515010728 -601.955501135295)
(1832.5356261129 -185.583807021656 -416.532504699924)
(2489.07554228863 67.902191937154 386.125667715517)
(1808.40593191317 -59.7589942690915 -193.461247049516)
(1342.43492220088 -372.683935975886 106.792184793578)
(2466.02605967363 510.00789378933 409.336454356249)
(1348.41916573419 -158.007747900589 344.804701525942)
(1733.29356826931 84.844583656738 16.4778761004563)
(1801.60947534841 -35.3122904367228 -492.207208948623)
(2068.7175447794 22.5572915768096 -37.4426364440796)
(2056.97312133414 148.104569376819 307.724216749912)
(1567.19639543438 -10.0585904981489 -345.041309255571)
(1948.0229751587 481.21970411716 361.579878908736)
(1703.80563949303 -264.239431327834 567.698165381639)
(1642.92695764925 -195.243498726485 83.5108385799715)
(1872.31749010187 -267.186083653927 -591.852798070295)
(1617.94758143644 -32.295066198112 -249.74170737762)
(1833.78767930448 -231.78669455669 86.0812378275113)
(1704.23925899394 -747.268229136316 6.29399534268718)
(2310.44377583276 -186.134354444811 145.192843247478)
(1575.87420397635 173.421450731941 -245.452710194212)
(1228.17509552995 92.710769487751 -22.4414687924629)
(1997.01360942268 -98.6207913942241 -112.366468521658)
(1684.76731725384 -180.19797977058 535.866617293583)
(1751.23521170766 366.620046447347 -284.086806566729)
(2246.66319334954 -374.551408683705 211.167140712096)
(2167.21336038942 192.661244463665 265.576247612472)
(1635.15220966931 -209.921731760604 206.565591824249)
(1664.97495321561 66.1883259392205 137.085687933943)
(1648.34873519359 -73.7596167850144 -98.9575258334668)
(1854.94365344102 405.011156913658 173.887861905364)
(1788.9763191565 203.702058192325 292.010997044939)
(1393.62642799914 133.133352282434 381.831100465991)
(1826.91165154315 -131.987005014134 56.8761683368471)
(1719.65271875496 -193.972012911051 -270.297742553751)
(2048.04003992722 416.407096084704 -306.004438903357)
(1837.98762991507 -23.8662981938075 -86.8005082136469)
(1475.66449212691 -190.451006563673 33.1027432150796)
(1959.93539323539 54.2314906836529 109.159599522249)
(1512.24536297311 80.5576197503615 307.997428542619)
(1803.41987267044 219.068996538355 -104.29199513559)
(934.70899060866 -2.44494573048444 107.336745630107)
(2051.23231077364 -253.4655813856 504.680523365855)
(1408.65128230333 -30.7432374090485 629.524973664672)
(1493.20823164441 354.108185960328 300.451826526079)
(1628.93496250781 12.2138749280392 -103.428950693891)
(1315.17160730454 181.828364227117 -446.321299205113)
(1756.0850527678 -655.278830493892 100.797488826572)
(1858.80250604476 281.399250253142 -9.48540149680945)
(1003.29180063129 -17.0757168625929 -13.9996080683681)
(1666.80194542913 536.572352484672 213.559748556951)
(1740.18472162465 -409.386936576847 -75.93437887865)
(1431.38471652674 -203.915995151891 -453.190788810625)
(1707.94900465826 37.4357600907791 29.7174962671497)
(1637.88998189276 -235.358117554276 -212.573589658374)
(1387.00892473459 116.622316560984 65.3667907001945)
(2015.28413480522 -636.517517539072 -30.2363789764079)
(1300.61398860712 -434.403258908418 -141.824849776845)
(1901.32430466991 112.693746332345 14.7632330025819)
(2330.98628436576 40.6674558931385 -495.177364582986)
(1412.38404116913 -25.7309030522095 -271.95441733278)
(1609.49839304444 71.7482915413916 -95.4957138994575)
(1839.20644968075 192.849739050929 -57.3957581109113)
(1989.09312516551 107.857658812856 -114.850410591739)
(1698.99595312102 -353.094296301895 319.10560962147)
(1836.02768940218 -367.091571329445 -221.512158788877)
(2372.02520425719 -274.465860345702 234.509641256485)
(1505.38221097344 -151.343463497685 112.3289384323)
(1342.48066082683 448.687877959443 -144.255295526384)
(1775.76332334855 -254.061526966314 -36.4486940305476)
(1656.56409257663 -586.732485664812 530.216612838868)
(2183.95135358494 -101.499691862677 84.0906468714942)
(2103.60270040898 17.564319677157 -430.325233761136)
(2023.60843174461 448.906490048978 363.352421548936)
(1574.4901417074 -429.005818716702 -319.406923575205)
(1578.48886563522 -329.171921587289 -357.025143312295)
(1097.18935958038 11.2123512683505 -348.739984836022)
(1950.88244662249 -98.384585282949 656.418711350094)
(1413.0857350018 155.050357207775 110.573184227507)
(1935.82593349428 65.582503171379 188.801969042676)
(1736.57572570696 -70.4045246473063 -200.111338033481)
(1651.83514538994 82.1287737127976 197.81888657414)
(1418.89511008517 -290.808618519799 325.322110046882)
(1863.28483014374 234.120867430165 -32.4056927402302)
(2316.25246784688 -416.145722643906 -191.286109819046)
(1728.55241817494 731.2197314142 313.541036471979)
(1729.48792965125 113.126674916291 74.0267872143245)
(1631.29864054711 739.383532720968 -37.9029030754586)
(1678.34577565048 -184.517238081054 131.656993253387)
(1668.21331656797 418.907263382337 -279.188177264463)
(1231.60369482209 255.709345972793 -179.468635277609)
(2001.23428713917 -224.933693123916 -118.413948829847)
(1166.19663293056 -455.702425729395 -86.9102147934067)
(1968.30096291473 -56.1560815531048 -107.384518957593)
(1366.49538929216 -253.076192879509 -10.9343055820431)
(1646.28734248855 354.76199383286 311.268414525938)
(2054.38850991995 373.781405079243 -100.502377746765)
(1743.17603181315 -129.830359415921 139.78070473573)
(1589.29009927865 -419.238561618621 920.838624974947)
(2158.55897397941 28.1057987027283 49.7541244155621)
(1892.22635718026 253.105079075094 165.872731286507)
(1777.32994777456 -80.1465126118872 -246.458319670962)
(1854.44110246379 128.005459224543 17.366431615493)
(1805.24644914879 352.36481957538 246.673898086552)
(1643.28032316228 291.73148330032 -373.061112692386)
(1950.5557994878 72.7734013791177 46.7790717921986)
(2281.64994817068 -145.089313701599 -505.102826793658)
(2270.87741363543 504.715141343766 -145.542282786903)
(1644.08576249122 250.441793421419 -55.3843972752381)
(2531.4518675981 -221.270551481017 -552.001449509674)
(1094.33699882953 -167.247329814273 -132.240697190783)
(1318.34312925188 125.050111086853 156.217941849867)
(2002.52003737365 132.192619750783 137.784576609819)
(2061.35017030788 450.403211271021 -404.287462871467)
(2019.03795285457 -326.348596210822 485.917194210281)
(1693.7123794582 107.10618417204 90.8554683957593)
(1805.2627404143 203.140399924188 -51.8327399683918)
(1297.51734678338 294.283199239136 -141.898154781025)
(1868.33321962195 -352.164428435512 -282.588732276909)
(2012.62860225497 363.094762913024 37.6038564733588)
(1350.2352053876 43.3191782019234 68.759310055522)
(1198.36156235924 178.440027913718 -54.9862879412107)
(2146.48060757014 -254.894547347928 325.477622556067)
(1135.57280433696 13.8374902963574 197.392095678255)
(1827.10715837677 53.3398076301076 -327.280822717303)
(2022.4392915685 28.6982080291872 327.949597848817)
(1506.11772203408 -245.999979183466 144.454945717356)
(1772.83394526988 113.673489719416 -757.999406548274)
(1741.02738129295 -6.89219682917844 -121.704427067097)
(1862.67012790287 510.482105060485 -468.716813210774)
(1454.06155031028 792.060054818083 326.597576879624)
(1755.85302349604 -205.815417366669 -26.0941740788993)
(1999.57012400048 22.929236625071 -259.275665902477)
(1668.00742719854 -251.380588795721 633.79431031398)
(1458.00124114705 367.917276579995 342.828599765467)
(1889.15779942512 108.647542465168 -444.540369570365)
(2100.63934361972 392.249680456355 -190.741906835984)
(1590.78984128027 -116.585171934927 206.528931675406)
(1314.4000866386 317.302130839451 10.1911213116208)
(1415.4869217401 562.110669357763 -143.935496485645)
(1416.72692628064 -615.167026053476 -391.001770664959)
(1917.23225105443 -341.635538555746 -505.442607071621)
(1615.55959977386 175.799698671531 -35.7701520202934)
(1550.16270547065 259.343487631438 -440.858387465162)
(1305.58330793764 -399.878609778203 10.7295605909835)
(1928.13631298897 203.904805112741 295.172297203065)
(1922.92407709316 345.40786803025 -53.5787036094263)
(1898.03105177238 -545.044811934283 85.789699166922)
(1478.49333040533 -3.27533718692281 -391.725768619639)
(1958.08083665699 -155.985242297706 -25.5570975070131)
(1660.97320983454 171.474407905644 -294.730977011489)
(1428.21211447898 -50.2391656071735 -384.770760182584)
(1791.50281152805 425.645447151318 -120.164714535596)
(1644.21969484728 -642.817135880036 -192.618236523587)
(1491.85321457124 -64.527610771888 329.360988180927)
(1812.51566178132 64.1871936357488 301.898488440202)
(1505.26171329335 151.676536979175 646.854125608238)
(1325.78836873314 -232.10990993172 -190.178954464466)
(1692.73420104058 87.6099693993115 395.062205808039)
(2225.71968922736 383.067374820227 -69.3649844122334)
(1378.69156455288 -294.588562996444 129.038276062608)
(952.467044765651 -142.991672984837 233.766078121978)
(1489.94965165359 487.123490338061 -19.5415245964875)
(1898.54079075051 -551.204595365282 58.7058321973062)
(1871.33053043026 777.820468034007 -24.5319282249226)
(1912.96392648785 174.330597164425 154.875556661759)
(1366.3068155882 -58.578065466551 188.23409722488)
(2030.18310953163 -177.301015171041 458.259717824263)
(2324.91946907788 267.763168650379 -612.545209285927)
(2230.14110470511 240.497120205679 -222.81388939383)
(1690.88298734003 293.34726491744 -12.9341726796634)
(2056.7987171199 382.958477290959 -83.3783528251991)
(1878.17545345067 -61.2662786905503 -91.0650903639477)
(1799.37486712715 -295.103720653364 91.8373489951494)
(2247.80866375814 -194.028006328141 551.54155537437)
(1453.47659588773 -30.6435648844516 -551.516594679171)
(1366.83854970624 -286.42787217207 -242.79603801813)
(1691.97044333185 140.554332445813 161.384117593309)
(1479.58308091895 -498.114096155134 14.992106657878)
(1040.28232421612 -462.796167004157 -283.454694179807)
(1456.77197974412 125.594114922767 241.130218497429)
(1422.24136512647 -423.039971714683 343.363108258331)
(1551.16431626307 -1.62232036731389 -376.577930312518)
(1790.79347510598 224.634518818014 273.28903018984)
(1779.64610690202 -287.317523243402 -184.16804226379)
(1618.81724371809 629.606371196089 298.334189116681)
(1918.73071731017 24.9642494672142 -67.6133587795013)
(1431.18230243455 -69.1667223763681 -124.048602397195)
(1859.23746452587 -304.970462889356 -122.951908323066)
(1874.38781024683 -215.626775916775 25.8246055422635)
(1458.07404842966 14.9972748831793 16.1000430995473)
(1572.22510719267 -410.171313510982 -363.917399199394)
(1378.38782636022 -297.081106252434 -197.60932811583)
(2013.4201628962 51.9100850687808 -330.452896547738)
(1783.9364069534 -478.854287047969 8.0474174977681)
(1458.31094559626 83.4689934630939 -111.155816944701)
(2041.81653098948 -172.993824706294 145.405878302665)
(1817.43129502147 -300.892724583545 140.589679375871)
(1915.37725978413 -46.1648900298468 265.770925328608)
(1272.32563881329 59.1806244154098 -381.139308973448)
(2142.85281131066 287.864704074948 -339.875918463853)
(1245.7140589049 173.465739926506 275.274486726104)
(1848.59690922438 24.4331756123607 352.134033362686)
(1583.25222834437 150.976282372907 -693.659740743794)
(1827.24009797591 225.711406786357 472.255037163535)
(1875.5309317122 -471.873610585479 -61.7012156815585)
(1831.12111045508 -361.267787927812 -113.250091606508)
(1811.79047524701 -168.216821705647 -152.148619397718)
(1242.18150589446 80.2406752884456 48.1077166730253)
(2082.95866163481 -33.5963838991646 741.302694021643)
(1723.45317849992 210.69031859583 522.306731575775)
(1688.76157961665 123.340099988916 -52.9267963014933)
(1681.04176585782 -10.8588596003571 550.222719533548)
(2373.00320088174 -617.261475343369 113.782784361253)
(1215.27155578232 -66.7806805945548 -94.4498937087294)
(1444.08311321543 -420.840015394287 136.578024395291)
(2046.61614453119 -89.2243782950131 228.549507646559)
(1676.27846500044 -143.392773856335 -143.638230534469)
(1769.0561400149 85.397858394905 430.851784954397)
(1902.17031886147 -221.729717373373 8.81139510033457)
(1497.18203058332 58.8014591694252 19.9040436668169)
(1967.59427827329 -67.6033280618865 -121.734373850698)
(1734.26128526987 -82.392489450906 199.459184898756)
(1666.04151650964 -1.54175895524759 -364.633520942034)
(1654.51174793649 370.184629040817 176.553812213315)
(1840.21800923489 -230.207317413673 2.33518588897859)
(2232.7321795922 164.68088380976 -71.1244959765584)
(1866.31408016975 377.098853109035 -172.079705156352)
(1496.64675731437 167.972243821082 -231.391513532048)
(1622.09554416044 -208.406104249629 -46.801302912114)
(1624.34503417141 -307.432411700592 -132.03013551581)
(1669.0516954029 -189.209412972423 420.839356403756)
(2204.37170921157 457.555593888414 18.0086613217673)
(1562.89852534615 -106.61804261877 -207.124482412692)
(1529.64353446115 -84.6962755313689 -331.184577066907)
(2255.97359400637 -334.42110262653 -660.572641199204)
(1845.57674186268 397.057212850168 297.330251167736)
(1744.59795139677 -427.8284671339 257.244114844132)
(1928.04923156436 -232.208142733456 -216.874506383605)
(1786.94844522664 683.335059308007 -205.740654832671)
(1912.25523091434 -147.552138972558 -149.371213665027)
(1864.34022366501 -357.583278856945 86.0303785641249)
(2139.65345763711 101.692829274878 -147.379227177276)
(1302.30248507372 31.8939500938138 96.4354432590647)
(1675.35853517875 -100.75255171464 -266.262995868589)
(2016.96523966322 -426.355964959776 -16.9718814329499)
(1252.59499427167 -97.9439182758474 -131.98665248641)
(1418.91973774549 -482.336398182141 23.4271049204977)
(1660.9430125259 -71.8538591994673 273.774842099113)
(2028.27455432919 389.979177750645 -1.28350722733144)
(1637.38960427784 911.265518874668 -20.3091225786911)
(1284.64936667349 419.538369075148 85.7152778508207)
(1303.67321213605 -191.659810598047 -197.671749443042)
(1945.5714715168 -529.346912172648 212.475491395408)
(1497.95035431638 614.614074499306 -70.977742614979)
(1532.99040357892 -217.853784857523 354.825236385186)
(1921.76159276291 -223.500342516006 -33.5196460266584)
(1259.128453491 -234.222262830404 -304.089062808329)
(2232.35457979252 -195.056892519605 -173.691210335591)
(2056.07553987485 389.777639949331 -418.145120943991)
(1914.71938399056 -183.59683042999 -145.739635806809)
(1186.90630571207 -134.572044331849 203.102599204417)