/*--------------------------------*- C++ -*----------------------------------*\
  =========                 |
  \\      /  F ield         | OpenFOAM: The Open Source CFD Toolbox
   \\    /   O peration     | Website:  https://openfoam.org
    \\  /    A nd           | Version:  7
     \\/     M anipulation  |
\*---------------------------------------------------------------------------*/
FoamFile
{
    version     2.0;
    format      ascii;
    class       polyBoundaryMesh;
    location    "constant/polyMesh";
    object      boundary;
}
// * * * * * * * * * * * * * * * * * * * * * * * * * * * * * * * * * * * * * //

5
(
    DSMCSide
    {
        type            symmetry;
        inGroups        List<word> 1(symmetry);
        nFaces          1;
        startFace       698;
    }
    fluidSide
    {
        type            patch;
        nFaces          1;
        startFace       699;
    }
    DSMCBound
    {
        type            patch;
        nFaces          1;
        startFace       700;
    }
    fluidBound
    {
        type            patch;
        nFaces          1;
        startFace       701;
    }
    nullDims
    {
        type            empty;
        inGroups        List<word> 1(empty);
        nFaces          2800;
        startFace       702;
    }
)

// ************************************************************************* //
