/*--------------------------------*- C++ -*----------------------------------*\
  =========                 |
  \\      /  F ield         | OpenFOAM: The Open Source CFD Toolbox
   \\    /   O peration     | Website:  https://openfoam.org
    \\  /    A nd           | Version:  7
     \\/     M anipulation  |
\*---------------------------------------------------------------------------*/
FoamFile
{
    version     2.0;
    format      ascii;
    class       polyBoundaryMesh;
    location    "constant/polyMesh";
    object      boundary;
}
// * * * * * * * * * * * * * * * * * * * * * * * * * * * * * * * * * * * * * //

5
(
    partSide
    {
        type            symmetry;
        inGroups        List<word> 1(symmetry);
        nFaces          1;
        startFace       998;
    }
    fluidSide
    {
        type            patch;
        nFaces          1;
        startFace       999;
    }
    partBound
    {
        type            patch;
        nFaces          1;
        startFace       1000;
    }
    fluidBound
    {
        type            patch;
        nFaces          1;
        startFace       1001;
    }
    nullDims
    {
        type            empty;
        inGroups        List<word> 1(empty);
        nFaces          4000;
        startFace       1002;
    }
)

// ************************************************************************* //
