/*--------------------------------*- C++ -*----------------------------------*\
  =========                 |
  \\      /  F ield         | OpenFOAM: The Open Source CFD Toolbox
   \\    /   O peration     | Website:  https://openfoam.org
    \\  /    A nd           | Version:  7
     \\/     M anipulation  |
\*---------------------------------------------------------------------------*/
FoamFile
{
    version     2.0;
    format      ascii;
    class       dictionary;
    location    "system";
    object      setFieldsDict;
}
// * * * * * * * * * * * * * * * * * * * * * * * * * * * * * * * * * * * * * //
// This is actually the file that sets up initial conditions for the shocktube
defaultFieldValues
(
    volVectorFieldValue U (0 0 0)
    volScalarFieldValue T 3.369272237E-02//348.432
    volScalarFieldValue p 0.001//100000
);

regions
(
    boxToCell
    {
        box (0 -1 -1) (0.5 1 1);
        fieldValues
        (
            volScalarFieldValue T 2.695417790E-02//278.746
            volScalarFieldValue p 0.0001//10000
        );
    }
);


// ************************************************************************* //
