/*--------------------------------*- C++ -*----------------------------------*\
  =========                 |
  \\      /  F ield         | OpenFOAM: The Open Source CFD Toolbox
   \\    /   O peration     | Website:  https://openfoam.org
    \\  /    A nd           | Version:  7
     \\/     M anipulation  |
\*---------------------------------------------------------------------------*/
FoamFile
{
    version     2.0;
    format      ascii;
    class       dictionary;
    location    "system";
    object      controlDict;
}
// * * * * * * * * * * * * * * * * * * * * * * * * * * * * * * * * * * * * * //

application     Hybrid;

startFrom       startTime;

startTime       0;

stopAt          endTime;

endTime         1.44e-3;//3.6e-3;//1.44e-3;

deltaT          6e-6;

writeControl    adjustableRunTime;

writeInterval   3.6e-4;

purgeWrite      0;

writeFormat     ascii;

writePrecision  6;

writeCompression off;

timeFormat      general;

timePrecision   6;

runTimeModifiable true;

adjustTimeStep  yes;

maxCo           0.2; // max currant number

maxDeltaT       1;

    
    libs
    (
        "libDSMCMod2.so"
        "libcustomBCs.so"
    );


functions
{    
    fieldAverage1
    {
        type            fieldAverage;
        libs            ("libfieldFunctionObjects.so");
        writeControl    writeTime;
        region          particle;
        
        fields
        (
            rhoN
            {
                mean        on;
                prime2Mean  off;
                base        iteration;
                window      5;
            }
            rhoM
            {
                mean        on;
                prime2Mean  off;
                base        iteration;
                window      5;
            }
            dsmcRhoN
            {
                mean        on;
                prime2Mean  off;
                base        iteration;
                window      5;
            }
            momentum
            {
                mean        on;
                prime2Mean  off;
                base        iteration;
                window      5;
            }
            linearKE
            {
                mean        on;
                prime2Mean  off;
                base        iteration;
                window      5;
            }
            internalE
            {
                mean        on;
                prime2Mean  off;
                base        iteration;
                window      5;
            }
            iDof
            {
                mean        on;
                prime2Mean  off;
                base        iteration;
                window      5;
            }
            q
            {
                mean        on;
                prime2Mean  off;
                base        iteration;
                window      5;
            }
            fD
            {
                mean        on;
                prime2Mean  off;
                base        iteration;
                window      5;
            }
        );
    }
dsmcFieldsMod1
    {
        type            dsmcFieldsMod;
        libs            ("liblagrangianFunctionObjectsMod.so");
        writeControl    writeTime;
        region              particle;

    }
}

// ************************************************************************* //
