/*---------------------------------------------------------------------------*\
| =========                 |                                                 |
| \\      /  F ield         | OpenFOAM: The Open Source CFD Toolbox           |
|  \\    /   O peration     | Version:  dev                                   |
|   \\  /    A nd           | Web:      www.OpenFOAM.com                      |
|    \\/     M anipulation  |                                                 |
\*---------------------------------------------------------------------------*/
FoamFile
{
    version     2.4;
    format      ascii;
    class       dictionary;
    object      boundaryDict;
}
// * * * * * * * * * * * * * * * * * * * * * * * * * * * * * * * * * * * * * //

 dsmcPatchBoundaries
(
    boundary
    {
        patchBoundaryProperties
        {
            patchName walls;
        }

        boundaryModel dsmcSpecularWallPatch;

        dsmcSpecularWallPatchProperties
        {
        }
    }
 );

 dsmcCyclicBoundaries
 (
 );

 dsmcGeneralBoundaries