/*--------------------------------*- C++ -*----------------------------------*\
  =========                 |
  \\      /  F ield         | OpenFOAM: The Open Source CFD Toolbox
   \\    /   O peration     | Website:  https://openfoam.org
    \\  /    A nd           | Version:  7
     \\/     M anipulation  |
\*---------------------------------------------------------------------------*/
FoamFile
{
    version     2.0;
    format      ascii;
    class       scalarField;
    location    "0/lagrangian/dsmc";
    object      Ei;
}
// * * * * * * * * * * * * * * * * * * * * * * * * * * * * * * * * * * * * * //


110992
(
4.14556892919086e-22
2.0915067383937e-22
3.83124215407779e-21
3.9219446396704e-21
1.41577508270048e-20
6.66392028451705e-21
6.07607997055164e-21
5.89570508544592e-22
1.72615142338605e-21
1.01790150851977e-20
6.17434383960801e-21
8.20314571044882e-21
3.4780169823278e-21
2.66676738692172e-21
4.6443630091108e-22
9.69813017516122e-21
1.77274104121838e-21
1.04486187811147e-20
1.02533327881724e-20
2.14114907224184e-21
5.89250822074364e-21
3.74941680400542e-21
7.21908372677446e-21
2.28656888099668e-21
4.771139819835e-21
1.0017274345482e-20
1.92052957179723e-21
7.86882540978139e-24
2.68922931852969e-21
3.68113099100404e-21
1.92459832475253e-22
3.21316371555688e-21
1.93390118226068e-21
2.56206261601943e-21
1.04277150774207e-20
3.54155267874589e-21
6.29327067604718e-22
5.12062978958542e-21
1.04109001388348e-20
8.65424345979822e-22
1.32177401448442e-20
2.27304933836375e-21
1.02503667054513e-20
4.96783102295906e-22
1.76195066989219e-21
2.01453080196934e-21
3.54823592758526e-21
5.13100162097105e-21
2.81524194912183e-23
9.68010466959346e-22
1.09449222368338e-23
2.72930047185007e-21
6.32201951097558e-22
6.40141635331951e-21
8.09114451875826e-22
3.44354854414358e-21
5.9223755543557e-22
4.66348487876856e-22
1.78141962642098e-21
1.02432254072459e-21
2.56647311267372e-22
5.56795097487783e-21
9.0510355137312e-21
4.24950552670445e-21
1.81182002784413e-21
6.53174853310045e-22
5.91003035002905e-21
2.77816401271837e-21
3.32768621625584e-21
6.55526297078323e-23
3.00899033663491e-21
8.5436843837082e-21
6.01830946241429e-22
7.65367024614501e-21
1.10679463503484e-21
5.18834845770765e-22
1.44663211826527e-21
1.35576751684862e-21
2.53246191413561e-21
6.43139054327678e-21
3.02824964527065e-22
4.03565380368697e-21
5.98017726692299e-22
1.36274660574853e-21
1.27291017621352e-21
3.955351763948e-21
3.66217286903659e-21
2.72025095495074e-20
3.92686085765175e-21
1.96555161075899e-21
9.74552815493643e-21
2.04038850362114e-21
4.99836496770403e-22
5.12380683753919e-22
2.00094726597447e-21
3.15035152037751e-23
5.58309753604276e-23
8.16959586310643e-21
3.92091626039181e-21
1.09670129428942e-20
2.75307404035756e-21
2.5261516663001e-21
2.75090641647709e-21
5.35234407185399e-21
6.83445147059085e-21
5.27583305712374e-22
6.79330161290159e-21
1.15722037837396e-21
1.73665635102075e-21
2.33344946543917e-21
2.93228608095043e-21
2.00449722176203e-21
5.98222878566795e-21
8.27724551017102e-21
6.14820482846222e-21
4.0709088199195e-21
7.08902990047587e-21
4.13178331738356e-21
7.9692271654093e-21
1.01400759705887e-21
8.10631575091909e-21
2.08793761422452e-21
5.79795204772928e-21
7.76462128040331e-21
7.36513633380575e-21
3.79129845754354e-21
2.10236426525423e-21
6.17851766384619e-21
3.26740170923146e-21
1.04277388717241e-20
4.72529991884184e-21
3.8904707024297e-21
3.94145070480399e-21
1.67910373441161e-20
5.81664628039871e-21
2.92769058002727e-21
2.34924139804061e-21
3.73212215854764e-22
2.2015143885102e-21
4.3912263327855e-22
3.61052864677642e-21
6.74092320659925e-21
3.13505019849043e-21
7.93082325986e-22
3.04265796538712e-21
1.44983845730202e-21
1.75662416219926e-21
2.11404172655936e-22
3.64399575456375e-21
9.81536720465984e-22
1.35482797199273e-21
6.9969492936759e-22
2.34157970836477e-21
8.52072353978061e-22
8.38603191073071e-23
9.38868777592321e-21
1.68661418509795e-21
4.97740228852349e-21
1.29828002705126e-21
1.85156212135459e-21
5.71232939824006e-21
1.9867259741018e-20
8.87190913008429e-21
1.06327053835916e-20
1.03225699406764e-21
7.82771320605285e-21
6.34921959969265e-22
1.33306694724104e-22
3.87214848558028e-21
1.10677222977545e-20
5.19825032285292e-22
2.2107078393351e-20
2.85898566696242e-21
7.20421077816294e-21
6.61959357962047e-21
2.55601473269241e-21
6.03165412216282e-21
1.32726383466005e-22
2.55689569638441e-21
6.93170909842057e-21
2.92496108909825e-21
2.18388360404673e-22
2.43540423666044e-21
1.55488938252475e-20
4.66021698476382e-21
1.15355371222329e-21
8.93810628249172e-22
2.46375916144466e-21
5.92383768179268e-21
1.4467662724608e-21
1.08017924441551e-21
4.72886740279378e-21
6.6921482724974e-22
3.26656963754139e-21
1.61993900833204e-21
1.85995989796583e-20
3.09596458567446e-21
3.09110635947238e-21
2.67301828251853e-21
1.06417581373668e-20
1.57401331016497e-22
1.39078563719199e-21
1.55613129580849e-21
8.4241585011616e-22
5.90112778715485e-22
3.36858851436194e-22
7.75323029842326e-21
3.00151211204946e-21
3.32821586371952e-21
4.75769184634331e-22
3.17971927361447e-21
1.31391909524076e-20
2.22536619236347e-21
1.03394021468603e-20
3.27709098443165e-22
1.37027001838807e-21
6.05496912641345e-22
1.81206043628399e-21
2.09065785030884e-21
5.5197070442729e-22
5.06920047562646e-21
1.58904099014988e-21
1.19393351976767e-20
3.67470895213006e-21
2.34657782421773e-21
4.64478294452228e-21
2.1834315682694e-21
4.05349242380226e-21
3.91071378344922e-21
1.42704988636809e-20
2.31564651623065e-21
2.01185372598612e-22
2.33100396911941e-22
4.66133133926571e-22
3.52264037196291e-21
1.12647998136485e-21
1.80799445621334e-21
4.20368503375028e-21
2.44616225079203e-21
6.54107824472082e-21
3.54897374180522e-21
7.78671650009142e-22
1.0301894118197e-21
3.13554501848528e-22
9.39137731407524e-22
1.269236634861e-21
1.70187197470629e-21
1.95820426337071e-23
2.15559678536423e-21
1.08726848965978e-21
8.95631473288926e-21
4.50210262757445e-22
9.51266129523902e-21
2.18881777002541e-21
8.18008157631172e-21
3.89340271753355e-21
2.20065474494536e-23
1.45749873894003e-20
8.20068499431689e-21
5.03478196500797e-21
5.56047743817001e-22
4.18442460079618e-21
1.63796587579017e-21
4.94482486497059e-21
1.30558596940514e-21
4.32734071897919e-21
1.76857254578353e-21
1.89889474037401e-21
1.94738112603166e-21
8.86773038257969e-22
1.45444769577428e-21
4.58897753313177e-21
2.77700908233378e-21
1.27744436188359e-21
4.18108222416731e-21
2.8313201201653e-21
1.86683564702709e-20
5.73439272629033e-22
6.9088533942227e-21
5.3941157991082e-22
7.69829722365234e-21
3.31066281877939e-21
4.32891534296017e-21
5.6643530922508e-22
2.601229874546e-21
8.47997794840233e-21
2.27293318450785e-21
3.73187788771278e-21
3.92278647180306e-21
2.0550075597769e-21
9.46603469798117e-22
5.87945066794641e-21
4.49178844440755e-21
2.7032180939095e-21
6.22141969001856e-21
4.86253639825883e-22
5.87268907748348e-21
1.5158898616624e-20
3.19472018338403e-21
6.08660427627424e-22
5.42571052245926e-21
2.15528842910407e-21
3.47184269945695e-21
8.34939487392784e-22
9.178218704909e-21
2.51160330324744e-21
1.29948930324669e-20
8.29036231003631e-22
3.49501523229166e-22
2.14610653431919e-21
7.27057147238476e-21
4.99468239436395e-21
7.16501682235749e-21
1.13433107865874e-20
6.36442276846099e-21
3.72832477829908e-21
4.47395208795852e-21
1.49259827954863e-20
8.58673768574662e-21
2.60608751614458e-22
4.36119445159063e-21
3.92205840704165e-22
2.30580455932585e-21
1.82190402957171e-20
5.55371445108308e-21
4.82804186593942e-21
5.57650285899294e-21
2.16235228018056e-21
2.64981932424236e-21
7.19002083994707e-22
1.06792790728928e-20
1.88068796873064e-21
6.83552606510298e-22
2.7879425832159e-22
2.26485209261711e-21
4.15745205619492e-21
5.962259051078e-22
9.33558835951622e-21
1.74609822864143e-21
4.2645876652689e-21
6.75724770340737e-22
1.87206180728406e-21
1.56317355311656e-21
5.11163007925021e-22
5.21348772835188e-21
6.45894532029911e-21
3.25720226544615e-21
1.71417773907949e-22
7.26165244513642e-21
2.261980391742e-21
2.01080071338469e-21
4.54327057794352e-21
5.61100205770472e-21
1.08453912909219e-20
4.8231992478684e-21
9.19136626327735e-21
1.08249259603057e-20
2.23620791337383e-20
3.52572737268696e-21
8.98429952105074e-21
3.73908115185396e-21
1.5303068425983e-21
1.58097602512575e-20
6.78237769920444e-22
1.03914663052549e-21
7.38527000211366e-21
1.58126149298201e-21
9.0406313709189e-22
1.38667231213779e-20
3.29769778603012e-21
1.84377664199522e-21
2.224562023438e-21
6.37000838071182e-21
3.83229407746797e-21
5.64849070862994e-22
3.1285520785313e-21
5.39611605164245e-21
2.00271852128796e-21
1.25140489275608e-20
1.61321819460402e-21
3.44883526126641e-21
1.14623097660142e-20
4.22810238440579e-22
1.62979829007221e-21
4.76590452404495e-21
7.98553269588381e-21
7.56184551709315e-21
9.79038039144331e-22
1.85610657532714e-21
5.25040328218517e-22
3.2033766082139e-21
5.43315673249321e-21
1.13608561290176e-21
1.2911724964025e-21
2.54250656037588e-21
8.96666278712809e-21
4.81985101241044e-21
2.99273661937137e-22
5.32931811500147e-21
6.60709583198211e-22
7.84114299671337e-23
1.18726106125553e-20
1.50093986511578e-21
8.20673475037803e-22
2.87709355983e-21
2.50839964059487e-21
1.35118555939403e-22
7.74442412886451e-21
2.15071657135616e-21
1.22898721159816e-20
1.56003606177655e-22
8.06439815934131e-22
8.71896151300456e-22
3.46430381443065e-21
7.63787172270773e-21
8.24210841154006e-21
2.84232445379544e-21
6.12098905807922e-21
2.60375059515945e-21
1.95200845342673e-21
1.01467335937207e-20
1.31922415301828e-21
5.21684386105564e-21
1.83982053823172e-21
2.53704308498825e-21
1.17618448686165e-20
2.14500513223223e-21
9.08109172005431e-22
3.74607877071821e-21
7.79823281174571e-22
8.25710852585077e-22
9.40656433686082e-22
3.91398947634598e-21
3.64506632510847e-21
1.65033953965647e-21
3.85107258614614e-23
1.72580164500875e-23
2.17421045351007e-21
3.99019806469551e-21
1.29916281133639e-21
5.89031008338569e-21
3.63434952644981e-21
9.79021248197198e-22
2.27475624875705e-21
1.35064394183545e-21
4.61484395833623e-22
6.46270926379681e-21
2.01326344359203e-21
2.48519138409552e-22
3.91318122101754e-21
5.93441103479256e-21
3.02427166781376e-21
2.53305858457562e-21
9.95611442085713e-22
2.48626040689628e-23
2.79601900852872e-21
1.19181217402992e-21
8.38696757555535e-21
7.49012300274681e-21
1.38526036127136e-21
5.20118831954841e-21
6.59506193560183e-21
7.188522112941e-22
1.3622963310734e-20
1.20834156173115e-20
2.29595882153578e-22
1.46897289055216e-21
7.84252554642038e-21
3.22775402726466e-21
1.65198347207644e-21
5.48207354946777e-21
8.61737704564625e-21
4.91630802406378e-21
2.60359360675379e-20
6.93659083502239e-21
1.92155716255865e-21
3.38178017576854e-22
8.3685188399804e-22
5.8957446135575e-21
2.85583756815819e-21
7.48245223637594e-22
1.77200557960527e-21
4.05234431834972e-21
2.75103744929752e-21
3.02994961804016e-21
2.64287037280667e-21
1.53193197086243e-22
1.45817004635157e-21
1.62726743590162e-21
1.9694813880548e-22
1.53281132463895e-21
1.89128469599638e-21
7.53490793593673e-22
7.88254981403713e-21
2.17508387668892e-21
2.20402608997371e-21
4.29796470388285e-22
4.87021171625566e-21
1.3251002945656e-21
1.67105274493512e-21
7.96291551390362e-22
4.81365545267896e-21
3.2499646725691e-21
5.87162646901761e-21
1.94758320212601e-20
1.96860289616017e-23
3.77150658087759e-22
6.01777825754323e-21
1.04085894124277e-21
2.78879426718926e-21
2.93448554641742e-21
1.16650433630261e-21
3.16385020260875e-21
4.73319120777999e-21
1.07526589050339e-20
5.39871127035738e-21
5.7503953861743e-21
9.03344871902856e-21
3.32417090199356e-21
2.03378122728261e-21
1.44748365126159e-20
7.51500288221271e-22
1.80966746778045e-21
6.15562557010539e-22
1.17426484991526e-20
1.41308137630192e-20
4.85873505514764e-21
9.53049428840353e-21
1.0964312722638e-20
6.4649035296348e-22
4.77239933128054e-22
2.37476377826078e-21
4.09757160532106e-22
8.03862422070765e-21
7.14121075664313e-22
6.58681975649167e-21
2.62918813462684e-21
1.03441989090153e-21
2.92895786996906e-21
9.58314417382443e-22
1.15025599807283e-21
1.99310687761605e-21
2.34575518277965e-21
4.68042091026205e-21
6.05475439689594e-22
9.68292888232534e-23
4.26475188550319e-22
8.80624788072962e-21
1.24852404669469e-21
1.38745216820547e-20
8.2443179658736e-22
6.35735950416202e-21
6.4373231712555e-21
4.77973502778922e-21
1.80260661572028e-22
7.39468154240558e-22
8.40110736951141e-22
7.04091456037033e-22
4.65919173367606e-21
2.06194887440358e-21
4.59428157381066e-21
1.14995966504074e-20
5.95793027444302e-21
1.09974568170536e-21
1.4538837658289e-21
2.08302379968718e-21
2.93193803152121e-21
2.01309240539528e-21
7.36837071750776e-22
2.50582236496212e-21
4.53979347505223e-21
8.68294571970572e-21
3.04851124784702e-22
4.11176268326407e-21
4.53922476724042e-21
1.5069396458086e-21
5.25531697495691e-21
1.68505337581898e-21
9.04183077007759e-21
7.14922406541095e-22
6.16142732215014e-22
7.26997876443893e-21
3.55150572152846e-21
3.5280893644006e-21
5.07802250676982e-21
2.91290734963349e-21
3.6645168839468e-21
1.70005845883614e-20
1.27253617992861e-21
7.96628210707194e-22
5.96502489163995e-21
6.72164263214439e-22
9.67594332014839e-21
1.68967045598693e-21
3.97325558840402e-21
4.43405937002953e-21
1.78852466716593e-20
1.56355290549263e-22
3.43609069651068e-21
2.14622412374321e-21
1.44620608100996e-21
1.68915482676847e-20
1.9202443572624e-21
5.96798706467061e-22
7.22425514051779e-22
1.62647303364281e-21
1.15480956604057e-20
8.11904913589097e-21
3.08577696537866e-21
5.10735015360822e-21
5.4836910285752e-21
5.9756538560746e-22
5.5170245567525e-22
2.7120257800054e-21
3.22577457536022e-21
3.61189141836667e-21
1.31819535546029e-21
1.46503299500245e-20
3.3219990622684e-21
1.6171194362819e-21
4.43192579547351e-21
2.0946723952336e-21
2.50720679693984e-21
3.58056242092943e-21
2.28749383619034e-21
6.63489012485912e-22
7.9187332575584e-21
4.1714829753862e-21
8.2235312949692e-21
4.27804035260928e-21
6.58399044925333e-21
9.6276645162812e-22
2.68046874134256e-21
3.67411901754337e-21
6.19683577330498e-21
8.59225957509533e-22
3.05853742351269e-21
5.2153593705955e-22
4.66628224255514e-21
3.09165840144754e-21
1.30764890223711e-22
6.45598346483058e-21
1.29687579846916e-21
9.77815375435893e-22
1.36594324939806e-21
2.34726856329817e-21
1.79322782635419e-20
4.33836645211574e-22
6.37902318702502e-22
4.15438582885312e-21
4.48171304262144e-21
1.74171686933234e-21
2.9992633972955e-21
1.38641402576874e-22
8.29666174489986e-21
3.05707302853575e-21
2.2101397389033e-21
3.60095776079543e-22
7.50367191476282e-21
4.09197856595196e-21
5.02880419279243e-23
5.39565869226972e-21
1.96031196837451e-21
3.40220624664787e-22
1.17711163166148e-21
2.26113990793771e-21
1.34495328002069e-21
3.77530869983199e-21
2.0585950136488e-21
3.58167689361232e-21
2.16124294268624e-21
2.23175522590782e-21
8.13531670906956e-21
9.72495721073264e-24
1.71665233008338e-21
4.00035572553621e-21
2.11799260132413e-21
2.15404546471974e-21
2.60299526249347e-21
3.07085473436268e-21
9.89184009213797e-21
1.29788324486602e-21
1.04177637759434e-21
4.42678825714423e-21
3.15581318161197e-21
3.75401756351823e-21
1.27203537340989e-21
5.47254683069562e-22
3.56258603529718e-21
1.42154422997057e-20
5.54583430932508e-21
2.0492877733721e-21
5.06637546473141e-22
6.48024630378176e-21
8.2099756813161e-22
1.26317617859684e-22
4.67149747326134e-21
3.41719259001514e-21
1.44924089380561e-20
1.71991049323637e-21
2.17877761356812e-22
8.20432817197645e-22
5.80950642107403e-21
4.14671111250091e-21
3.35525813034217e-21
1.33660824352245e-21
2.40876073562883e-20
5.71543881088139e-21
8.28163546324987e-22
3.20890973150873e-21
1.45482696927458e-21
2.86279086004766e-21
1.06665582620151e-21
2.6325725439919e-21
9.78933529332448e-21
2.52259288969151e-21
7.58184117130784e-21
1.1666371047806e-21
8.78937919693543e-21
2.24842919113262e-21
3.15607356555876e-21
2.04288483209183e-21
6.91280917536989e-21
1.27191124709759e-21
9.04483735873806e-21
1.16407821790202e-20
1.03685544826694e-20
8.27673367738019e-21
2.21101636136603e-21
8.36905944293474e-22
4.73562066749047e-21
9.36073921606952e-21
1.85205864582829e-21
1.27251655303757e-22
5.55743899864039e-22
9.14769407163119e-21
3.66830164837674e-21
1.22382242121914e-21
6.09807675297053e-22
4.88642625551368e-22
3.39211868339971e-22
8.55722699007007e-22
1.19574922703558e-21
6.60946518731006e-21
1.93930632461495e-22
1.14171541479935e-20
4.27146115176209e-21
6.16474817350256e-21
8.94144633368457e-21
8.96359065225495e-22
8.15863329964463e-22
3.6450259050505e-22
5.57171978696585e-22
2.71820788123853e-21
3.91377690194186e-23
4.67089632803216e-21
3.42576390711368e-22
6.21407810885715e-22
7.58302534115154e-22
2.37699406116264e-21
2.00319167243703e-21
1.43958742953554e-21
3.1142137203685e-21
2.21573665652092e-21
1.00174917297868e-20
5.97105970230672e-21
4.32623366654984e-21
1.63875006356363e-21
3.66837304269098e-21
4.01636965231107e-21
5.79633703610094e-21
4.61895727852006e-21
8.33506564008242e-21
4.20977746804405e-22
5.89915185519013e-21
1.07241901973618e-22
3.69423018938337e-21
3.83148041279264e-21
1.21016394485052e-20
2.23276375232611e-21
3.54353931389071e-21
6.11173684895254e-21
2.35995925823419e-21
1.55898327945551e-21
2.69280884468089e-22
1.66159334256131e-21
3.49345068483294e-21
3.76632423943607e-22
3.32229616222544e-22
4.62163068483335e-21
2.05899434681419e-23
1.68422332230742e-20
3.62686156219319e-21
1.50648746484232e-21
1.72804520774913e-21
3.06476160043751e-21
5.42800784808059e-21
1.02312054293776e-20
5.45867983066439e-21
1.45821471180048e-22
1.59140738933117e-21
1.19321647369286e-21
2.16496683066082e-21
1.95391322472297e-23
7.10518080794239e-21
9.70563598183813e-21
1.46033831565848e-20
9.65553487658234e-22
2.26503466710578e-22
6.24626194624763e-21
8.07231056385689e-21
1.98909884481696e-21
2.45559585377123e-21
1.05395788281293e-20
2.3506851147507e-21
6.65574749452102e-21
1.29927571072814e-21
3.53865513691411e-21
6.89990748488619e-21
6.3173837210997e-21
2.31217351917821e-21
1.92759555759343e-21
3.12249388984568e-21
6.78741512005817e-21
1.28258620662619e-21
5.50114158950641e-21
1.30997614916083e-22
3.96014250601953e-21
4.60955962573411e-21
1.50920380250183e-20
1.4079862052518e-21
1.34267770048108e-21
2.1060364440688e-21
1.53609613801169e-21
5.80989622202027e-22
7.48658210596308e-21
6.21790554455173e-21
7.52232349603592e-21
2.73812565393033e-21
8.77904351292366e-21
1.73721660705891e-22
1.98343117473382e-22
3.91528224713047e-22
4.10308788912638e-22
2.43187332155982e-21
1.97744988770786e-21
4.96823911771154e-22
3.91774768613401e-22
4.15082399361239e-22
2.84096097532367e-21
1.48991426873965e-21
5.31059778657716e-21
2.25287860663002e-21
8.34935919825126e-22
2.23981885771965e-21
1.57403080110483e-21
3.49639921299956e-22
1.47927823306245e-21
4.41942231634132e-22
2.70480460612234e-21
1.07465215608382e-21
2.78793938786487e-21
2.60207059005916e-20
1.13797996129696e-20
3.31830296392812e-21
1.35798229190561e-21
2.9440508601691e-21
4.89145901019311e-22
5.22346076364686e-21
7.12569850849356e-21
3.16193719615024e-21
1.23682887953944e-21
9.94280200906838e-22
7.04872521848165e-22
4.93680559640179e-21
2.30819505708049e-21
1.17904457968766e-20
9.0346508340245e-22
2.80630953418185e-21
2.15427323329893e-21
2.57713186768555e-21
1.13940650865005e-20
5.56204207945542e-21
6.47031707476434e-22
1.77554403364694e-21
5.20911886912427e-21
4.5870159319644e-21
2.4299949459282e-22
1.28099686290822e-20
5.57343242438639e-21
3.63676829820951e-21
7.30925229234056e-21
1.98204828278657e-21
2.71267112830849e-21
3.51308132130657e-21
2.0107179395074e-21
4.27877604672865e-21
9.39277509344466e-24
4.62718675441231e-21
1.22870333547955e-20
1.26525855191338e-20
4.37960989821429e-23
1.24199938427574e-21
2.79095470138515e-21
5.35983210463804e-21
1.06683592337872e-21
2.45805258239159e-21
3.96810930637175e-21
6.48478038810553e-21
1.29934405983226e-20
4.29682306719279e-21
4.2765380072191e-22
3.65565865752966e-21
6.47242642949325e-22
3.61384591285731e-21
1.88565078448365e-22
8.80949880219355e-21
1.32087169792867e-21
5.16242279727873e-21
4.43590326668644e-22
6.37886164544004e-22
3.47015783250938e-21
4.37413754787244e-21
4.40860446821725e-21
7.60504371249896e-21
8.19886228752576e-21
1.26366679812877e-21
5.76564409430681e-21
2.33929441789145e-21
6.15979341945269e-21
1.45646146801226e-20
6.85515786659048e-21
1.3126876852688e-20
5.54717051577225e-22
4.31925459186792e-21
3.57466889261512e-21
5.40525992690474e-21
8.20282638272297e-22
4.11238785844217e-21
3.29745147743578e-21
4.42243648717438e-21
2.23039009311445e-22
9.8038943063797e-21
1.30556801133809e-22
7.15889154890611e-23
2.80928636765258e-21
1.20924861584155e-21
1.311797494062e-21
3.30120985905155e-21
1.90369267666363e-21
5.58383353567582e-21
8.48110216541164e-21
1.62207336809544e-21
8.12419088952166e-21
7.87539334253451e-22
4.05970564303423e-22
6.82304568231579e-22
1.28026434770088e-20
2.52091390489945e-22
4.72706904121546e-21
2.69982821406139e-21
1.20814031225031e-20
3.77324807236139e-21
4.16710714747867e-22
2.5718645365227e-21
7.46631322439778e-22
4.71388564276874e-23
1.12593942077884e-21
1.29437238187119e-21
6.01120442061474e-22
4.12190012675106e-21
1.31882185367357e-21
7.1731176418429e-22
6.17119084586068e-21
1.0878776706923e-21
2.73982413885152e-21
8.75627674301784e-21
3.69124310065164e-21
1.07110783705703e-21
2.98782041766476e-21
8.03007611143165e-21
1.64685060400028e-21
7.94096287488119e-21
7.83200636765801e-23
5.86344669913328e-21
1.39093128986466e-20
1.37798942764267e-21
2.19893193962577e-21
4.64779552718578e-21
1.78760855922081e-21
1.04291161850159e-20
3.95624668885196e-21
1.09186334354607e-21
1.39838923029689e-21
4.3216410290533e-21
1.65650296007838e-21
4.05071308657772e-21
1.18590699072939e-21
3.24138441752291e-21
9.18529108432021e-21
4.69479736972411e-21
5.64922847152963e-21
2.15751643479085e-21
1.6138222736507e-21
8.41119210229763e-23
6.85330988608523e-22
1.1817539367952e-21
1.64186529811906e-21
2.1192451601925e-21
2.86613188210164e-21
1.30222009151654e-20
2.37606237032506e-21
9.05595442561682e-21
1.96997391168361e-22
3.37161272913945e-21
7.63465799921472e-21
1.63092194176093e-21
2.6783445692885e-21
2.3556722360183e-21
5.16928895656614e-21
3.03730259747191e-21
1.25714359762798e-21
6.4380010239803e-21
7.93338857819409e-23
9.74400713182164e-21
2.80537168273902e-22
2.94301860262474e-22
7.97943729223224e-21
9.1773842104309e-21
2.09772253456326e-20
7.87541074163259e-21
2.4104732190592e-21
3.47485259186623e-21
8.52156334595487e-21
5.6057759451576e-22
1.2685393369466e-21
1.00753490425013e-20
4.95789218390484e-21
2.16988177317442e-21
1.84968609271523e-20
4.18455277754023e-21
1.91855456080712e-21
2.44364416846521e-21
3.26699807102043e-22
1.23345126998894e-21
4.62273074398352e-21
7.60195871681121e-22
1.4032592950047e-21
6.41336497144268e-21
4.18103369043493e-22
3.20004669349784e-21
1.86295024688493e-21
5.85921084614409e-22
3.65189225600404e-21
6.28292511214562e-21
4.87258265571261e-22
3.02986517350748e-21
6.32933574156938e-21
4.65100306338564e-21
2.80411122856258e-21
3.63917725510499e-21
1.79026595581397e-21
1.1473799088508e-21
1.97689452695006e-21
1.05647622575222e-21
5.23887803122018e-21
1.12471494743736e-20
2.90584792659137e-21
4.93860113652452e-22
5.55247112559276e-21
5.89907105599406e-22
3.02301345805185e-21
3.67930617935825e-21
1.17406034339193e-21
3.6253938971408e-21
4.28333132894728e-21
3.95491123457921e-21
3.76025900781023e-21
1.18223125139037e-21
2.14512435117954e-21
1.28502647812848e-21
4.97961973201992e-21
2.79633671939734e-21
2.58003400031191e-21
3.7981898039678e-22
2.48846453954318e-21
5.26218412632672e-21
1.32706780917205e-21
4.09318816066733e-22
6.7620551024801e-21
5.31658040913573e-21
4.14130826079496e-21
4.55507204049146e-21
6.27314176518552e-21
2.58448331892503e-20
7.38278715772841e-22
1.49190557411424e-22
3.00310473617077e-21
1.37796094276881e-21
4.81880055711241e-21
1.45870005879953e-21
3.40362896106102e-21
8.14568509777184e-21
1.47782093686542e-21
1.41057258875055e-21
6.34698694459005e-21
3.38945874647434e-22
4.81458644835869e-21
1.01542982571239e-21
5.09259313139304e-21
2.56182766838869e-21
1.04603650274179e-20
5.24638685886121e-21
1.46815428681418e-23
1.92542865379712e-21
5.99045280495601e-21
1.3704048849856e-21
2.75466582699623e-21
2.43430194987367e-22
3.6144714526883e-21
5.46995076103184e-21
2.3886651929874e-21
6.51459718448096e-21
2.05210806614233e-21
1.92092984114001e-21
2.01399527054622e-22
9.76966704753988e-21
1.12419805567561e-21
9.74348786781964e-22
1.00467139822627e-20
5.13475534838362e-21
5.01299774452136e-21
7.58013168479984e-21
1.07209981877562e-21
1.81815377412157e-21
1.6834540619931e-21
5.66120117561438e-21
6.68935497864533e-21
8.52231145148482e-21
4.93820387496987e-21
7.30779939951731e-21
3.82580845265398e-21
2.98177909066471e-21
9.95640856530684e-22
3.01930405050631e-21
3.4637588226804e-21
6.31233999426944e-21
6.7140905057959e-21
9.42668966653755e-22
5.42027494451133e-21
1.82762199200093e-21
5.69612623081082e-21
9.43652984530244e-22
3.19211843453748e-21
5.52825882903941e-21
2.65452068892452e-21
3.04094812559994e-21
1.77482070084565e-21
6.75298278086372e-21
3.07386713317483e-22
1.06773426295089e-21
7.01883157674185e-21
2.45710069005324e-21
1.0497037799629e-21
1.27233307775745e-21
2.52178982912476e-20
4.90512091838916e-21
4.75890639803755e-21
1.26463301451137e-21
5.08761228652443e-21
4.32457496201031e-22
6.62404737867306e-21
2.56055900247661e-21
5.2150621833951e-21
1.14594079675403e-21
2.73906232444617e-21
1.55176939221021e-21
2.79875069037188e-21
2.24629809571018e-21
1.05402375362644e-20
6.48289375997594e-21
1.07305803239374e-21
5.5552237329579e-21
1.02958537420176e-21
4.19377100986669e-21
2.74774894998056e-21
1.00936647325102e-21
6.04175822955692e-21
1.57616861412366e-20
4.35505665885091e-21
5.63584510250911e-21
1.06289378465898e-21
1.04263850559834e-21
3.36681685720909e-21
1.4491824836785e-21
1.16783120728834e-20
1.91541910170645e-22
4.44898334305111e-21
3.52988066912213e-22
1.04458117950938e-20
6.35537710262769e-21
6.71350407852565e-22
1.25153492926962e-21
1.68396717912646e-21
1.59303424872502e-23
2.05453254806339e-21
2.530511048235e-21
1.84907345594138e-20
5.96066996685675e-21
1.59917133006549e-20
1.56170733195964e-22
1.05116898035268e-20
4.84774740260388e-21
6.33252857770823e-22
1.00285917468783e-21
7.89085326501881e-22
1.27631202993205e-21
4.07897519734288e-21
2.27598228414422e-21
3.17143390314935e-21
1.18483469552625e-21
2.61964423067733e-20
5.84266749456733e-21
5.29501818136557e-21
5.93632601621345e-21
8.85141960698788e-21
4.50593328461888e-21
5.75117164514747e-21
1.0591370823363e-21
6.23126165964239e-21
1.22584677571395e-22
9.05529902391767e-22
7.54079654447647e-23
5.65566158929103e-22
1.66202419902401e-21
1.64336848357487e-22
2.31416962870052e-21
1.46068020267334e-22
8.34229814468924e-21
1.56634599256056e-21
1.22656162749927e-20
1.0612839662486e-21
6.09078168589642e-22
5.47523066566334e-22
2.84241753027085e-21
2.75150093335772e-21
3.45700738510223e-21
2.29534361411799e-22
5.53469979014005e-21
4.52211288865731e-21
3.07211369819673e-21
2.10991028986485e-21
1.80408301748282e-22
1.24634234782616e-20
1.29521112829793e-20
3.21738763201593e-21
2.82276709234676e-22
9.63850707691492e-21
4.20062020563823e-21
1.33432040668379e-21
5.34769490148703e-21
3.40941758939197e-21
3.12435426085232e-21
7.06227296434715e-21
7.49696128488149e-22
8.14939634892361e-21
2.03635574224537e-21
3.5367722232467e-22
6.23346896427291e-21
4.46695190657064e-22
5.10646523109811e-21
1.37566965913148e-21
4.08317112936044e-22
2.82627082902383e-21
2.63330612897243e-21
1.8857155089938e-21
1.96995798930702e-21
8.62262907293347e-22
1.40952032071523e-20
1.32575306002336e-21
1.04181530926061e-20
4.39962817982047e-21
6.92907763698161e-21
1.589198353249e-21
4.31902916756307e-22
5.37756525241901e-22
4.90746903903879e-21
2.10767627148083e-20
4.61522384759568e-23
1.83963186993747e-21
2.23859258259323e-22
9.80524177394858e-23
1.66215947263568e-21
1.00971691574305e-21
5.41562310287977e-21
1.02204802654285e-20
3.45080183867325e-21
1.08081023760851e-20
1.1106083667383e-21
1.69259180250943e-21
1.23861670562292e-20
3.07285787681971e-21
1.06421836608812e-20
5.89603114714996e-21
9.33547612054601e-22
9.5294810306907e-21
3.38714026210492e-21
9.03055563267771e-21
2.38652258740113e-21
8.66575726114184e-21
3.11124553602622e-21
2.28683565992749e-22
2.19999992318257e-21
4.28260247313471e-21
7.9417266904128e-21
6.70081301152722e-21
5.97422331799704e-22
1.85809136033223e-21
1.1199578918236e-20
6.20974512211794e-21
2.9514723398754e-21
2.34366641675108e-21
2.45268369982272e-20
2.72950531056083e-21
4.31577534849126e-22
2.18571012530143e-21
2.52219784707995e-21
5.74124499142499e-21
1.48295561750617e-21
7.18717837141391e-21
3.86083560362557e-21
1.09033626612535e-21
7.73389719322951e-22
1.8789074631671e-21
1.96250932829408e-21
5.30887740256059e-21
5.49356246890376e-21
1.39259166037288e-21
9.35677812708656e-22
1.99141932255889e-21
1.69875424834586e-21
1.66516256756857e-21
3.53429462227764e-21
4.0694296888258e-21
1.30172757413106e-20
4.40034680227678e-21
1.3113003279359e-21
6.25981442153842e-22
4.31761873878091e-21
7.21956352526842e-21
4.16738743860768e-21
4.16140820758932e-21
7.33358951240168e-21
2.61819628274416e-22
3.73363890872545e-21
1.13476539647607e-20
4.56617369665154e-21
4.0082289409279e-21
8.38575354633711e-21
1.1729771961763e-20
4.35995590742126e-21
9.84427425156839e-22
1.56901853229684e-21
1.89897156326511e-21
1.1370253728323e-20
3.57736726832244e-23
2.32084719584109e-20
2.66312660918381e-21
1.09748782022717e-21
8.46553845054069e-23
5.07792907562321e-21
8.42788290054457e-22
5.35502217352505e-21
1.73426179647312e-21
1.62153846680142e-21
2.87846012549144e-21
2.92130460689555e-21
2.59316514592929e-22
3.02475137061291e-21
2.57275383169542e-21
9.2406619930244e-22
1.27080404812673e-20
1.65823904216851e-22
4.14200480597104e-21
8.80967416307658e-21
2.99284013367736e-21
6.54740136484775e-21
3.3349095317632e-21
2.94997626801607e-21
5.19907652217806e-21
8.16266536900739e-21
4.39488602636898e-21
6.07561719826725e-21
1.14088331774609e-20
8.30661763173658e-22
2.18660080970075e-21
1.89968618539772e-21
1.69995662473078e-22
1.23173494014246e-20
3.77962194952921e-21
9.09957098509547e-22
1.51046962188922e-21
1.77379950560722e-21
1.08927339050883e-21
3.8502340720829e-21
3.85906185133989e-21