/*--------------------------------*- C++ -*----------------------------------*\
  =========                 |
  \\      /  F ield         | OpenFOAM: The Open Source CFD Toolbox
   \\    /   O peration     | Website:  https://openfoam.org
    \\  /    A nd           | Version:  7
     \\/     M anipulation  |
\*---------------------------------------------------------------------------*/
FoamFile
{
    version     2.0;
    format      ascii;
    class       polyBoundaryMesh;
    location    "constant/fluid/polyMesh";
    object      boundary;
}
// * * * * * * * * * * * * * * * * * * * * * * * * * * * * * * * * * * * * * //

3
(
    fluidSide
    {
        type            zeroGradient;
        inGroups        List<word> 1(zeroGradient);
        nFaces          1;
        startFace       99;
    }
    fluidBound
    {
        type            zeroGradient;
        inGroups        List<word> 1(zeroGradient);
        nFaces          1;
        startFace       100;
    }
    nullDims
    {
        type            empty;
        inGroups        List<word> 1(empty);
        nFaces          400;
        startFace       101;
    }
)

// ************************************************************************* //
