/*--------------------------------*- C++ -*----------------------------------*\
  =========                 |
  \\      /  F ield         | OpenFOAM: The Open Source CFD Toolbox
   \\    /   O peration     | Website:  https://openfoam.org
    \\  /    A nd           | Version:  7
     \\/     M anipulation  |
\*---------------------------------------------------------------------------*/
FoamFile
{
    version     2.0;
    format      ascii;
    class       scalarField;
    location    "0/lagrangian/dsmc";
    object      Ei;
}
// * * * * * * * * * * * * * * * * * * * * * * * * * * * * * * * * * * * * * //


35843
(
1.19853e-21
3.46947e-21
7.77493e-22
1.25411e-22
4.78254e-22
2.02958e-22
1.76742e-21
1.3908e-21
2.47127e-22
3.07537e-22
1.95011e-21
1.21831e-21
1.69215e-22
1.80622e-21
1.61115e-21
8.36358e-22
8.27184e-22
2.12806e-21
1.08e-21
2.16024e-21
3.16853e-22
3.65547e-21
3.14801e-21
2.25787e-21
2.50967e-21
1.74562e-22
2.70073e-21
2.8808e-21
1.27985e-22
4.57295e-21
1.6651e-21
4.16413e-22
1.78681e-21
6.37567e-23
4.03536e-22
2.70836e-21
2.09859e-21
2.22242e-21
2.25259e-21
2.03996e-22
5.42811e-21
3.4623e-21
1.5559e-21
8.82295e-22
4.93801e-23
1.32592e-22
1.7208e-21
2.12615e-21
1.50925e-21
5.32473e-22
4.84682e-21
1.14436e-22
4.46144e-22
1.60978e-22
3.19102e-21
5.33034e-21
2.00756e-21
9.81398e-22
4.61428e-21
6.3324e-21
3.84718e-23
2.20174e-21
2.00613e-21
1.3184e-21
7.39384e-22
6.4744e-22
7.94852e-22
3.48662e-21
2.22165e-21
1.47255e-21
1.22442e-21
5.62684e-22
1.39201e-21
3.7821e-21
8.3417e-21
1.61376e-21
1.12165e-20
2.86123e-21
1.0272e-21
1.59768e-21
7.51617e-22
4.10106e-23
4.40308e-22
3.11344e-21
1.01648e-21
3.72344e-22
5.32647e-21
2.12561e-21
1.51286e-21
6.12353e-21
2.15425e-21
5.0456e-22
1.33102e-21
9.52501e-22
2.20913e-21
4.86625e-23
3.5271e-21
1.7569e-21
7.37271e-22
5.69978e-22
1.28761e-22
7.97823e-22
4.46376e-21
2.21673e-21
3.52469e-22
5.62262e-22
2.65619e-21
2.6942e-21
7.79934e-22
7.32287e-22
1.19173e-21
3.50699e-21
1.36254e-22
1.84736e-22
7.65035e-22
4.90774e-21
5.39924e-22
2.08837e-22
2.24828e-21
1.07281e-21
6.60474e-22
4.51913e-22
1.23512e-21
4.25866e-22
1.41964e-23
1.346e-21
5.29931e-21
1.70989e-21
1.27457e-21
2.32345e-21
9.7128e-22
1.44998e-21
7.58822e-22
2.75279e-21
2.15921e-21
5.11101e-22
2.7513e-23
1.05459e-21
5.79549e-23
5.59958e-22
1.87575e-21
3.11823e-22
6.36624e-22
1.31758e-21
4.10571e-22
1.98815e-21
5.72431e-21
1.3855e-20
4.71056e-22
2.17877e-21
7.44377e-22
1.19209e-21
2.1914e-21
9.17541e-22
4.84984e-22
2.4588e-21
8.84311e-22
1.14983e-21
5.19911e-21
2.27434e-21
3.07211e-21
1.03219e-21
7.10403e-22
3.55673e-22
1.56986e-22
4.54548e-22
8.43041e-22
3.72402e-21
2.80138e-21
3.04433e-21
4.7507e-22
2.43332e-21
1.7722e-21
4.41201e-21
8.35194e-22
1.5409e-21
1.63619e-21
1.07645e-22
1.6189e-23
2.04129e-21
1.17873e-21
9.03108e-23
1.84731e-22
9.35233e-22
2.18833e-22
3.4074e-21
1.89201e-21
1.24568e-21
6.17262e-22
1.152e-21
4.88583e-22
1.75793e-22
9.38929e-22
7.37398e-21
2.25558e-21
1.36712e-21
1.16639e-21
7.99632e-22
1.1161e-22
7.14551e-22
8.50672e-22
4.57738e-21
8.81921e-22
1.3418e-21
7.42974e-23
7.6774e-21
5.45459e-22
1.80397e-21
3.73171e-22
1.79989e-21
2.68971e-21
8.09672e-22
7.85561e-22
4.69526e-21
9.20973e-22
1.8189e-22
1.04044e-21
2.28607e-22
4.40409e-22
1.39915e-21
3.87441e-22
7.43555e-21
1.24132e-21
1.71793e-21
2.74809e-22
4.89739e-21
2.34314e-21
1.57981e-22
4.67666e-21
3.90293e-21
1.35558e-21
6.19438e-22
7.45613e-22
6.17423e-23
5.33744e-22
6.76622e-21
1.08885e-22
4.8321e-21
2.01376e-21
5.1431e-22
2.14445e-21
2.50227e-21
8.89659e-21
5.58484e-22
4.55224e-22
5.08466e-22
3.32322e-21
2.70953e-21
9.0447e-22
9.5179e-22
8.28556e-22
2.40798e-21
5.64485e-21
8.93763e-22
8.77712e-25
2.26447e-21
3.30831e-21
8.91463e-22
1.84825e-22
2.27909e-22
3.64212e-21
6.30942e-22
1.05691e-21
4.25704e-22
6.50558e-22
1.59304e-21
1.38907e-21
3.94446e-21
4.62104e-23
3.86264e-22
5.63105e-22
1.82679e-21
2.08392e-22
7.28745e-22
1.16595e-21
3.82863e-23
2.12269e-21
6.3369e-21
2.82044e-22
1.16686e-21
3.02905e-21
1.54553e-21
2.56099e-21
1.36003e-21
4.25241e-22
3.39826e-21
6.80149e-22
4.02509e-21
9.85841e-22
1.26931e-21
3.19106e-21
2.1613e-21
7.20645e-22
2.82662e-21
1.30073e-21
1.8459e-21
4.37168e-21
2.35295e-21
1.50802e-21
4.973e-21
2.23735e-21
1.30947e-21
1.48093e-21
1.55877e-21
2.00945e-21
1.54551e-21
2.40232e-21
2.40697e-22
1.52143e-21
6.0792e-21
2.35212e-22
3.07191e-21
5.52719e-21
4.28604e-22
5.5535e-22
1.10011e-21
9.2681e-21
1.07382e-21
4.41773e-21
1.63302e-22
1.23572e-21
2.31416e-21
4.44951e-21
4.59108e-21
2.32995e-21
7.78827e-23
2.90759e-22
1.13412e-21
4.19314e-22
1.23033e-22
2.13118e-21
1.33916e-21
7.15552e-22
6.70029e-22
3.02887e-21
3.67947e-22
1.67077e-21
2.15607e-21
1.10128e-21
2.98564e-21
5.80471e-21
1.47939e-21
2.30483e-21
1.32135e-21
5.33172e-22
2.15356e-21
6.92443e-22
4.56313e-22
5.74205e-21
1.29112e-22
4.24355e-22
5.63028e-22
1.66689e-21
5.93658e-21
1.85863e-21
2.86364e-21
1.1154e-20
3.79774e-22
1.15944e-21
2.60492e-21
2.54747e-21
2.23252e-22
5.97769e-22
1.24474e-21
5.9788e-22
7.07621e-22
3.02321e-21
5.50873e-22
3.78068e-22
2.73346e-21
1.33045e-21
2.96076e-21
1.29224e-21
1.66926e-21
7.08199e-23
4.15756e-21
8.27027e-22
2.90168e-22
5.67263e-21
1.3836e-21
6.93097e-22
1.20758e-21
6.22961e-21
1.64978e-21
1.91038e-21
3.49964e-21
1.69837e-21
3.27898e-21
2.75709e-21
3.76642e-22
4.54397e-22
3.86598e-21
1.32265e-21
4.54e-22
2.3191e-21
3.33909e-22
4.91236e-22
7.78446e-22
8.34347e-23
1.34553e-21
2.28314e-23
3.73418e-22
1.43798e-21
7.65451e-23
2.55347e-22
3.60341e-21
1.56773e-22
6.43901e-22
1.29434e-20
4.51192e-21
5.31062e-22
1.65785e-21
3.888e-21
2.60506e-21
7.23654e-21
1.09892e-22
2.44246e-21
6.47215e-22
4.71193e-21
6.87889e-22
3.27661e-21
6.08762e-22
1.81942e-22
5.88481e-21
3.3645e-21
2.28014e-21
9.0069e-22
6.79158e-22
2.27218e-21
2.80958e-21
3.31429e-22
3.80202e-21
1.47773e-21
1.39277e-21
2.30426e-21
5.79874e-21
3.71358e-21
5.49188e-21
3.69357e-21
1.36751e-22
5.45483e-22
2.16221e-21
8.85476e-22
6.35443e-22
1.48001e-22
3.73581e-22
1.45481e-21
1.10977e-21
6.38839e-22
2.00831e-21
3.7577e-21
3.93101e-21
1.0371e-21
1.43223e-21
5.66258e-22
2.14318e-21
3.06505e-21
3.28875e-22
6.6298e-21
6.34561e-22
6.52324e-23
1.35991e-21
9.84263e-22
2.37147e-22
2.50025e-22
3.53699e-22
6.09443e-21
9.62136e-22
6.58807e-21
5.49873e-22
2.41545e-21
1.02226e-21
6.76866e-23
5.00266e-21
1.93543e-21
5.57861e-23
3.26004e-21
3.43266e-23
1.91461e-21
8.19133e-22
7.02982e-21
7.31497e-22
5.90521e-22
5.52821e-22
7.12085e-22
2.31988e-21
2.44831e-21
2.29761e-21
1.73718e-22
1.92615e-22
9.41686e-21
6.49291e-25
2.80552e-21
1.69128e-21
1.86165e-21
3.22939e-21
5.42712e-22
5.38575e-21
6.07825e-21
5.67039e-22
1.29996e-22
2.19346e-21
1.48877e-21
7.29064e-22
8.56947e-22
1.88075e-21
1.41122e-21
7.20651e-23
1.24543e-21
2.49619e-21
1.1183e-21
2.02714e-21
1.38737e-21
6.38641e-21
1.13202e-21
1.35411e-21
1.41821e-21
4.9967e-21
2.03023e-22
1.80177e-22
2.86988e-21
3.43099e-22
6.70094e-22
5.41938e-21
3.15261e-21
9.58437e-22
6.36123e-22
4.72648e-21
3.91946e-21
4.62072e-21
1.09358e-21
6.18992e-21
1.15996e-21
1.34399e-21
1.71058e-21
2.64086e-21
3.80806e-21
4.12135e-22
6.82588e-22
1.07502e-21
5.60001e-21
1.27715e-21
9.25028e-22
1.70275e-22
3.4965e-21
7.51173e-22
1.49259e-22
5.82891e-22
4.84025e-24
3.33622e-22
1.92647e-21
2.64548e-21
7.01235e-21
1.5453e-21
1.31018e-21
2.45068e-22
3.99527e-22
1.51736e-21
2.32837e-22
1.56898e-21
2.45981e-21
1.76167e-22
3.50771e-21
7.04661e-22
1.88281e-21
2.88107e-22
3.3255e-21
8.56244e-22
2.23347e-21
2.39442e-21
1.35636e-21
2.93026e-21
5.27568e-21
2.1889e-21
2.63001e-22
1.40143e-21
2.98011e-21
6.52421e-21
1.69353e-21
2.36799e-21
8.5121e-21
3.09599e-21
8.3481e-22
1.56673e-21
3.29761e-21
1.72633e-21
1.47881e-21
8.24582e-22
4.65666e-21
2.35042e-21
4.09062e-21
3.1156e-21
2.47398e-22
2.51831e-21
2.51711e-21
1.57322e-25
7.56778e-21
1.55238e-21
1.59691e-21
2.80907e-22
3.05558e-21
8.80333e-22
2.53274e-21
3.49843e-22
2.6096e-21
1.70713e-21
1.7672e-21
8.82813e-22
1.04059e-21
1.16571e-21
1.47959e-21
2.61143e-21
1.39267e-21
2.47996e-21
5.41666e-22
5.83235e-23
5.53747e-22
4.54929e-21
1.51561e-21
8.47127e-22
1.42836e-21
7.28104e-23
4.13057e-21
4.08848e-21
4.73084e-23
5.76906e-21
2.36489e-22
4.69619e-22
1.45235e-21
6.76577e-22
2.59451e-21
4.34235e-22
4.97842e-21
2.14961e-21
8.55195e-21
5.72409e-22
7.22355e-21
3.41503e-21
5.25542e-22
3.09137e-22
2.2757e-21
2.83709e-21
9.47427e-22
1.0533e-21
6.00829e-21
1.26166e-20
1.66313e-21
2.93527e-21
4.31563e-21
1.36948e-21
2.10846e-21
5.79736e-22
1.39412e-21
5.65885e-23
2.54661e-21
9.49114e-22
1.90129e-21
5.59958e-21
8.24339e-22
6.05316e-22
7.27347e-22
7.27679e-22
1.72969e-21
3.68379e-22
4.13356e-21
1.07049e-21
7.82008e-23
6.9904e-22
4.1489e-22
6.46876e-23
9.48227e-21
4.73863e-21
4.61387e-21
2.132e-21
1.16623e-21
8.06101e-22
5.57882e-21
3.32784e-21
6.1181e-21
2.03837e-21
3.28319e-21
1.92272e-22
1.00019e-20
1.35017e-21
1.12496e-21
8.98018e-22
2.06469e-21
1.18436e-21
1.16684e-22
5.35361e-21
3.87502e-21
2.65327e-21
3.24275e-21
1.77363e-23
1.21621e-20
1.20673e-21
2.41387e-21
1.01752e-21
1.69343e-21
1.99896e-22
7.95168e-23
2.11716e-22
5.4661e-21
5.60454e-22
3.51801e-21
1.25588e-21
5.74722e-21
3.07738e-21
1.81009e-22
1.40914e-21
3.30459e-21
1.59374e-21
7.07579e-21
3.69773e-22
1.27016e-21
2.15142e-21
4.75686e-21
1.64577e-21
3.1756e-21
9.04307e-22
4.4413e-21
8.78305e-23
5.96737e-21
1.1847e-20
8.44492e-22
3.34222e-21
1.54198e-21
2.74315e-21
2.49398e-22
6.81338e-21
1.37555e-22
8.83304e-22
1.01389e-21
1.52575e-21
7.84854e-22
8.56967e-22
1.03443e-21
4.56174e-22
8.36703e-23
1.36091e-21
7.43944e-22
7.30635e-22
3.90131e-21
1.27233e-21
6.61095e-23
1.17426e-21
5.60081e-21
1.38901e-22
2.85305e-21
6.80759e-21
2.20799e-21
1.61916e-21
5.63824e-22
2.09352e-21
1.1019e-21
6.41964e-21
3.61185e-21
7.17434e-22
3.93786e-22
1.87165e-21
2.48516e-21
6.80818e-21
2.07077e-21
2.8636e-21
2.05241e-21
4.49004e-22
9.87066e-21
6.50677e-22
1.77484e-21
1.20997e-21
8.01224e-23
1.07089e-21
4.93961e-21
4.10623e-23
7.86837e-22
2.40058e-21
5.05493e-21
3.79166e-21
1.37412e-21
4.27013e-23
6.03587e-21
3.57363e-22
1.19952e-21
4.60105e-22
1.90219e-21
2.29281e-21
5.05244e-21
4.12079e-21
6.59573e-23
1.56696e-21
2.95626e-21
2.09001e-22
1.77566e-22
1.71646e-21
1.27883e-21
1.03973e-21
1.49938e-22
2.58103e-21
4.60318e-22
5.13572e-22
8.4171e-22
4.04113e-21
1.65234e-22
5.43011e-22
3.68939e-21
4.18893e-21
4.06317e-21
7.01415e-22
5.85819e-22
1.36608e-22
2.10489e-21
1.79963e-21
1.81395e-21
2.11752e-21
1.6622e-21
2.35462e-21
2.46411e-21
3.40369e-23
1.01963e-22
7.45585e-22
2.98149e-21
2.20161e-21
2.81831e-21
3.19224e-21
2.72773e-21
8.49501e-22
2.03749e-21
1.73291e-22
1.31959e-21
2.94646e-21
1.96411e-22
6.68317e-21
6.76975e-23
9.50815e-22
1.4744e-21
6.31282e-22
6.24976e-21
1.22872e-21
2.91216e-21
1.93057e-21
7.62696e-22
1.44248e-21
7.73546e-22
8.88414e-22
1.20166e-20
2.27114e-21
2.34607e-21
8.00348e-22
3.68251e-21
1.78602e-21
1.97517e-22
9.54316e-22
3.52405e-21
5.02406e-21
5.50852e-22
1.28709e-21
3.01329e-21
2.52609e-21
6.45347e-21
2.98447e-21
6.91893e-22
3.57151e-21
5.17585e-21
1.0195e-22
1.28671e-21
1.24165e-23
2.84595e-21
1.72945e-21
8.60314e-22
1.35489e-21
2.72707e-21
8.14937e-22
7.86379e-21
5.60335e-21
1.80808e-22
1.69092e-21
4.73043e-21
1.69987e-22
4.415e-21
1.77998e-21
1.51493e-21
3.86738e-22
3.51608e-21
1.33157e-21
1.53425e-21
3.18514e-21
4.01693e-21
1.22474e-21
2.1166e-22
1.70374e-21
3.77097e-21
6.19381e-21
1.33248e-21
3.87413e-21
3.81527e-22
1.36316e-22
3.33346e-21
2.121e-21
4.8693e-21
4.82175e-21
6.85146e-21
1.4198e-21
9.29804e-21
2.99673e-21
4.93131e-23
1.1913e-21
1.01868e-22
2.24408e-21
2.46448e-21
3.29864e-22
5.18994e-21
3.07001e-22
5.98577e-21
3.3171e-21
1.60336e-22
3.53406e-21
3.0341e-21
2.2264e-21
3.80258e-21
1.77685e-21
3.95384e-21
5.85857e-22
2.30074e-22
1.15361e-22
3.40474e-21
2.46372e-21
6.71003e-21
5.67023e-22
2.33813e-21
1.24592e-20
4.96296e-22
8.10791e-23
3.05878e-21
4.29971e-21
2.50776e-21
7.7329e-23
2.43721e-22
3.57761e-22
1.04064e-21
2.01971e-21
2.87469e-21
1.04407e-21
4.80862e-21
3.98708e-22
1.53362e-21
4.48189e-21
4.94375e-21
1.22919e-21
1.66662e-21
4.10353e-21
1.6522e-21
2.94117e-21
3.98505e-22
1.20027e-21
2.7614e-21
2.01256e-21
5.62209e-22
1.80408e-21
1.06332e-22
1.09904e-21
6.87872e-21
5.07655e-22
3.97296e-21
1.01547e-21
3.84712e-21
8.63241e-22
1.50865e-22
2.0937e-21
1.84655e-21
1.87287e-21
1.28474e-21
1.86224e-21
4.81061e-21
2.64532e-21
2.44406e-22
3.80274e-22
3.34579e-22
2.61217e-21
3.3079e-21
1.98272e-22
2.1746e-21
3.48744e-21
1.77837e-21
6.37499e-21
7.70862e-22
6.15877e-22
5.23234e-22
5.18417e-21
2.41099e-21
1.67189e-21
1.41555e-21
2.15574e-22
3.28482e-21
1.95867e-21
9.42963e-22
1.71075e-21
7.59268e-21
1.77292e-21
4.70924e-22
2.39082e-21
2.56504e-22
6.5197e-22
4.38381e-21
8.38648e-22
1.71656e-21
2.36713e-21
7.02477e-22
1.00639e-21
2.4302e-21
5.45709e-22
2.89838e-21
5.82023e-22
3.10551e-21
2.39628e-21
5.1555e-21
1.50707e-21
2.16044e-22
1.95305e-22
3.87366e-22
2.7417e-21
1.80578e-21
1.41582e-22
6.38044e-22
1.55679e-22
8.25104e-22
4.30201e-23
1.2813e-21
6.0722e-22
2.24269e-21
1.20889e-21
1.81355e-21
3.33727e-21
9.12471e-21
3.00354e-21
1.12514e-21
9.9689e-22
2.90831e-21
2.44566e-21
3.90917e-21
6.36714e-22
5.39376e-21
2.15884e-21
9.75031e-22
1.53383e-22
1.06557e-21
3.61858e-24
2.60342e-21
1.96186e-21
6.03628e-21
8.98003e-22
5.23408e-21
3.50269e-21
5.02398e-22
9.65141e-22
5.71819e-22
2.37594e-21
1.86065e-21
6.88299e-23
2.11658e-21
2.14996e-23
1.05187e-21
1.81109e-22
1.45423e-21
4.46703e-21
4.88689e-21
2.01064e-21
3.95587e-21
1.09577e-21
7.63622e-22
3.01568e-22
2.86935e-21
5.06862e-23
4.9245e-22
6.85645e-21
3.78142e-22
8.36278e-22
1.56117e-21
6.66911e-22
2.21872e-21
1.2526e-21
7.3911e-22
2.59558e-21
1.83073e-21
1.99377e-21
2.08082e-21
7.79605e-23
5.39376e-22
1.48333e-21
5.14083e-21
4.6312e-21
1.58058e-21
2.37095e-22
2.20237e-22
5.18849e-22
1.36591e-21
1.45744e-22
3.5344e-22
1.44592e-21
4.58641e-22
4.43741e-21
2.00773e-21
6.98741e-22
1.64975e-21
4.3077e-22
1.6488e-21
5.60955e-21
7.94969e-21
2.55066e-23
1.0831e-22
2.2188e-22
2.01109e-21
2.96066e-22
3.81376e-21
2.5827e-21
4.17342e-21
1.42113e-22
3.97273e-21
2.53775e-22
7.61769e-23
4.99182e-21
5.99762e-21
1.36276e-21
7.06332e-22
7.10894e-23
1.96539e-21
1.61702e-22
1.0057e-21
5.17956e-21
3.77682e-21
6.1184e-22
7.46862e-21
1.23669e-23
5.6362e-21
3.65073e-22
9.14218e-23
5.00171e-22
2.81107e-21
3.6647e-22
5.5992e-22
4.23177e-22
7.93471e-22
2.11393e-21
1.76714e-22
8.27671e-22
1.32264e-21
4.05773e-23
8.12601e-21
4.06384e-22
1.48803e-21
2.17769e-21
1.17358e-21
1.58865e-21
2.63476e-21
1.30216e-21
8.59499e-23
3.61525e-23
9.96593e-21
1.9672e-21
2.9828e-21
9.77842e-21
1.06991e-21
5.21548e-21
6.86649e-22
7.2192e-22
4.21841e-22
8.24827e-22
1.36607e-22
1.86705e-22
4.06381e-21
8.37116e-23
1.75299e-21
5.81264e-22
3.61726e-21
4.93379e-21
2.23542e-22
4.57952e-21
1.26141e-23
7.99936e-21
8.96037e-22
3.75569e-22
1.52331e-22
2.11063e-21
6.4985e-22
3.92414e-21
8.57846e-22
4.88183e-22
5.8874e-22
4.25851e-21
1.07626e-21
4.20171e-21
1.52202e-21
5.14203e-22
4.34133e-22
6.81061e-21
2.90217e-21
2.63676e-21
1.8946e-21
2.9003e-21
7.44555e-22
2.6671e-21
1.83624e-21
2.29586e-21
1.71867e-22
3.04333e-21
4.24168e-22
6.72952e-22
1.34899e-21
5.25434e-21
1.13336e-23
9.88834e-22
2.745e-21
1.27641e-21
7.16152e-22
4.59598e-23
2.89897e-21
1.07179e-21
2.62681e-21
8.43704e-23
6.88818e-22
1.13108e-22
8.34453e-22
7.92385e-22
1.31773e-21
2.43294e-21
3.62872e-22
5.3553e-23
4.51485e-22
4.09472e-22
1.53085e-22
3.22532e-21
1.69833e-21
3.10511e-22
1.26078e-21
1.60819e-21
8.12433e-24
3.20969e-21
5.53424e-21
8.33714e-22
3.03451e-21
4.75953e-21
1.26045e-21
4.95598e-22
5.39427e-22
1.15356e-21
3.32529e-21
8.49916e-21
1.21828e-21
1.07639e-21
5.21636e-21
9.99197e-22
2.52718e-21
1.22076e-21
3.24092e-21
1.59123e-22
5.17334e-21
1.79425e-21
1.11417e-21
1.01072e-21
7.16785e-22
2.86393e-22
2.9331e-21
1.41079e-21
2.1598e-21
1.34193e-21
1.87083e-21
2.65901e-21
4.1592e-21
1.9965e-21
2.74416e-21
4.726e-21
2.30055e-21
3.60012e-21
3.70499e-21
1.63215e-22
7.07761e-22
2.63652e-21
1.5091e-21
3.72731e-22
9.25006e-23
5.68285e-22
1.07198e-22
1.21385e-22
1.97638e-21
2.48488e-21
2.07082e-21
3.11517e-21
7.59709e-22
3.03243e-23
5.66746e-23
8.64906e-22
2.07906e-22
1.9015e-23
5.36619e-21
4.32088e-23
1.19325e-21
1.06487e-21
1.17149e-21
1.82399e-21
5.82277e-21
4.74141e-22
2.28835e-21
1.4778e-21
3.45518e-22
1.80584e-21
2.98911e-21
1.72789e-21
2.94722e-21
1.88607e-22
4.63378e-21
4.15991e-22
7.56814e-22
1.66831e-21
2.40181e-23
4.0912e-21
8.28951e-21
1.11592e-21
6.89775e-22
3.17254e-22
2.90397e-21
2.68514e-21
9.14514e-22
4.98523e-21
1.03574e-21
1.23804e-21
2.34923e-22
4.13296e-21
3.86797e-22
2.93589e-21
2.17715e-21
2.97514e-21
2.63279e-21
4.71838e-21
1.98257e-21
9.94806e-22
1.18394e-22
8.41757e-22
2.29907e-21
2.7179e-21
2.77166e-21
8.48603e-22
6.33945e-21
1.54733e-21
3.74359e-22
3.46727e-23
5.66969e-22
1.25183e-21
2.07177e-21
5.42491e-21
3.47241e-22
1.58745e-21
8.02363e-22
5.96768e-21
7.32041e-22
4.58009e-21
5.39085e-22
2.29316e-21
5.59481e-21
7.86083e-21
1.4183e-22
4.71426e-21
2.28107e-21
8.3904e-22
1.34195e-20
5.07374e-22
1.12189e-21
2.37753e-22
9.84483e-24
3.08355e-22
9.29401e-21
1.95917e-21
1.07571e-20
8.78476e-23
2.62434e-21
2.08267e-21
2.37596e-22
2.45221e-21
3.45611e-21
1.64995e-21
1.16165e-21
1.35879e-22
2.69753e-21
2.8519e-22
3.37554e-21
9.00795e-23
2.18853e-21
9.46216e-22
4.62486e-21
6.59331e-22
6.43667e-23
7.50106e-22
5.93545e-22
2.93001e-22
1.33104e-21
2.28042e-22
4.87254e-21
1.13261e-21
3.56334e-21
3.75405e-21
4.24637e-21
3.47737e-21
8.00164e-21
1.8768e-21
8.53373e-22
1.95243e-22
3.71439e-21
1.1046e-21
9.25419e-22
2.69263e-21
2.81887e-21
9.25822e-22
2.73518e-21
1.56813e-21
3.21893e-21
1.78042e-21
1.30789e-21
1.2655e-21
2.1635e-21
1.93798e-21
1.05426e-21
1.42269e-22
1.69711e-21
4.77047e-21
3.53366e-21
5.81893e-23
8.44981e-22
3.66185e-21
5.98088e-22
1.05096e-21
1.42618e-21
2.82803e-22
1.00392e-21
3.29717e-22
4.0277e-21
3.67076e-21
1.25263e-22
3.30764e-22
6.67887e-22
4.16934e-21
4.5143e-22
1.95019e-22
2.6533e-22
3.99085e-22
6.56298e-22
1.2007e-21
2.74147e-22
2.71616e-21
2.18595e-21
1.27696e-21
2.56166e-22
1.64963e-21
2.55357e-21
1.81898e-21
5.06903e-21
3.91098e-21
8.94125e-22
1.27328e-21
6.36949e-22
9.49328e-22
4.43404e-21
2.63256e-21
4.6137e-21
1.46993e-21
2.20737e-21
8.61776e-23
5.5254e-22
2.80599e-21
5.15685e-23
4.84505e-22
3.19842e-21
1.57723e-22
3.44209e-21
3.3823e-22
3.24165e-21
7.80972e-21
1.33052e-21
1.0545e-21
2.67001e-21
2.32633e-21
4.38545e-21
1.15832e-21
2.57235e-21
4.71405e-21
2.98152e-21
3.49431e-22
3.83054e-22
9.75526e-23
7.29897e-22
5.08482e-21
2.1904e-21
5.74038e-22
2.69191e-21
7.32675e-22
9.74077e-22
6.86322e-21
1.01616e-20
3.47477e-21
5.45348e-21
2.47282e-21
9.66658e-21
3.11038e-21
4.81038e-21
1.03905e-21
7.57796e-22
2.93409e-21
6.5729e-21
1.10251e-22
1.1162e-21
1.69086e-22
9.68383e-22
2.13339e-21
1.11944e-22
4.12866e-21
7.53982e-22
4.53868e-21
1.00789e-21
4.13579e-22
5.04515e-21
1.20777e-20
2.95973e-21
6.35555e-22
7.90822e-22
4.07137e-21
7.84967e-22
8.29778e-23
1.35483e-21
3.24559e-22
4.11369e-21
1.47824e-21
4.75572e-21
3.10009e-21
8.40324e-22
2.96411e-21
6.01645e-22
2.97105e-21
1.53833e-22
1.24506e-21
5.93489e-22
1.73214e-21
1.18897e-22
1.31263e-21
9.03791e-21
1.36997e-21
1.2896e-22
7.09237e-22
1.36065e-21
4.22666e-22
4.51056e-21
2.80894e-21
2.88265e-21
3.94976e-21
2.6135e-21
4.33446e-22
4.55692e-21
3.92638e-21
5.86559e-22
5.51438e-22
1.76832e-21
1.44163e-21
1.20376e-21
9.85317e-22
1.14956e-21
1.54059e-21
1.10818e-20
2.91996e-21
2.79319e-21
4.2194e-22
3.32217e-22
2.96672e-22
9.97142e-21
5.28253e-21
1.03223e-21
5.7199e-22
4.92892e-21
3.59528e-21
5.61818e-21
5.94448e-22
7.11747e-22
2.32515e-21
3.76759e-21
6.99296e-22
2.47455e-21
1.09125e-21
7.92105e-22
1.05443e-21
5.73532e-22
1.84077e-21
2.29943e-21
2.8773e-22
1.46004e-22
4.92952e-22
7.41825e-21
3.34181e-21
5.70662e-21
2.45867e-21
2.11351e-21
9.64197e-22
5.31467e-22
5.27559e-21
1.11125e-21
2.21141e-21
6.7923e-22
6.26877e-21
6.34921e-21
1.39859e-21
7.61088e-22
1.97672e-21
4.18779e-22
3.06943e-21
2.38149e-21
3.09459e-21
3.1301e-21
1.209e-21
2.39124e-21
1.74108e-21
3.65912e-21
5.85267e-21
4.5962e-21
3.99154e-21
2.94773e-21
3.21461e-22
1.68323e-22
9.82294e-22
3.09886e-21
8.5135e-22
8.2916e-22
3.16041e-21
1.92418e-21
3.09479e-21
2.06784e-21
7.04511e-22
3.92779e-21
2.15597e-21
1.62346e-21
1.34151e-22
7.24737e-22
1.91902e-21
1.30436e-21
2.67244e-21
8.47013e-22
4.2879e-21
1.94827e-21
4.7826e-21
3.40362e-21
6.12248e-21
1.28072e-21
3.04411e-21
4.21084e-21
1.16847e-21
1.53811e-21
3.14195e-22
6.95187e-21
1.4017e-21
6.7765e-22
2.19191e-21
6.48273e-23
8.88456e-22
6.58958e-22
3.89596e-21
7.18688e-22
7.45269e-21
7.76485e-24
6.53772e-22
7.79276e-22
7.12144e-21
3.28789e-21
1.16145e-21
2.59851e-21
3.99386e-21
4.07528e-22
1.63872e-21
1.0246e-21
1.56601e-21
7.97874e-22
4.32252e-23
8.54329e-22
5.62808e-23
6.42095e-22
4.30091e-22
2.3333e-21
5.00016e-21
5.29611e-22
4.84457e-22
2.95762e-22
2.89106e-21
8.11009e-22
5.77058e-22
2.62479e-21
4.97043e-21
2.06426e-21
1.47707e-21
4.8423e-21
5.43983e-21
7.8647e-22
1.08479e-21
6.33218e-22
1.83807e-21
1.99305e-21
9.66651e-22
2.15364e-21
1.32489e-21
6.78493e-22
1.98855e-21
1.00321e-21
1.60753e-21
4.53507e-21
3.17245e-21
1.24163e-21
3.3514e-21
6.6296e-22
7.85962e-22
6.33595e-21
1.17544e-21
1.46455e-21
8.71439e-22
3.29646e-21
2.40485e-21
1.04716e-21
6.68303e-22
5.66019e-22
4.95419e-22
8.68459e-22
2.37505e-21
1.40328e-21
2.82774e-21
1.90034e-21
2.68401e-21
9.76653e-22
1.89303e-22
2.06043e-21
3.03387e-21
1.94299e-21
1.6791e-21
3.13874e-22
4.8811e-22
3.37146e-21
4.69291e-21
7.83358e-21
4.69882e-22
7.74504e-22
8.10688e-22
8.14204e-22
1.24108e-21
5.44691e-21
1.10526e-21
1.21849e-20
4.89718e-21
1.33361e-21
2.62811e-21
2.07419e-22
3.57775e-21
2.17421e-22
2.77705e-21
2.87922e-21
4.6567e-23
2.41995e-22
1.56821e-22
2.45871e-21
8.06843e-22
1.33502e-21
1.22103e-22
1.49058e-21
8.10589e-22
2.59168e-21
2.16746e-22
1.4657e-21
3.2447e-21
4.81059e-21
3.03837e-21
6.70389e-22
1.00797e-21
1.02554e-21
3.6923e-21
1.13261e-21
4.10951e-21
2.93282e-21
1.95635e-21
3.05604e-21
2.84507e-22
4.23064e-22
6.83927e-23
1.18447e-21
7.45147e-22
8.33405e-21
2.60971e-21
8.19177e-22
7.89638e-22
5.90397e-21
3.60402e-21
6.44092e-22
6.87505e-22
5.88601e-21
2.16961e-21
1.84205e-22
8.2461e-22
6.46325e-22
1.21407e-21
2.88958e-21
2.3942e-21
1.54244e-21
1.51197e-24
1.34896e-21
7.17646e-21
4.1978e-21
8.35252e-22
2.66216e-21
9.22402e-22
2.04208e-21
3.02047e-22
2.94776e-21
1.44396e-22
1.77368e-21
1.70689e-21
1.46814e-21
6.45564e-22
1.5716e-21
7.15763e-22
1.08286e-21
5.33976e-21
1.59503e-21
2.49611e-21
1.29676e-21
1.34496e-22
3.32025e-21
2.83394e-21
7.68163e-22
6.98647e-22
1.6896e-23
6.27663e-22
1.72692e-22
3.12599e-21
1.38679e-21
3.95839e-21
4.66321e-22
4.86874e-22
3.69557e-22
3.2155e-21
4.73974e-22
3.26198e-21
1.19092e-20
7.1787e-22
6.9886e-23
1.08771e-21
1.47388e-21
1.27075e-21
3.21136e-21
7.51117e-22
2.73966e-21
2.48719e-22
1.18771e-21
2.32315e-21
2.00807e-22
1.97618e-22
5.26739e-22
1.03025e-21
3.21698e-22
4.37023e-21
1.08278e-20
4.84172e-21
4.21374e-22
9.06099e-22
3.02493e-21
2.59121e-22
1.98789e-21
2.04756e-22
2.98504e-22
2.58001e-22
2.81966e-21
2.46494e-22
2.33373e-21
6.755e-22
2.29616e-21
4.58658e-21
3.68615e-21
4.221e-21
1.22707e-21
3.46517e-21
8.04375e-22
1.21675e-21
3.21817e-21
3.39127e-21
4.85396e-22
7.2877e-22
2.59632e-21
1.06542e-21
1.35219e-22
1.33388e-21
5.63446e-22
9.25312e-22
1.21405e-21
8.39792e-21
4.13437e-21
1.75656e-21
2.31323e-21
1.59488e-21
2.77695e-21
7.94127e-22
2.70083e-21
2.84223e-21
1.08143e-21
2.04185e-21
1.77165e-21
1.05391e-21
1.87444e-21
9.55559e-22
2.58496e-21
3.70085e-21
9.89564e-22
7.86572e-22
1.36e-21
6.99433e-21
4.08902e-22
7.70818e-21
1.66061e-21
1.47708e-21
4.21949e-22
2.93257e-22
3.30953e-22
1.42509e-22
1.31323e-21
1.3731e-21
4.29856e-22
6.14795e-21
1.27306e-21
4.7664e-21
4.53632e-21
3.69836e-21
1.5409e-21
9.61376e-21
1.24232e-21
1.28067e-22
3.79428e-21
3.45862e-21
3.95825e-21
2.01554e-21
3.32791e-21
2.06238e-21
5.46594e-21
1.19201e-21
1.78639e-22
3.327e-21
8.56388e-22
1.00004e-21
4.70112e-24
1.92719e-21
3.49629e-21
5.46439e-21
4.91164e-21
1.33474e-21
7.26829e-23
2.88587e-22
2.4278e-22
4.25151e-22
8.6302e-22
1.36323e-21
1.37479e-21
2.64051e-21
1.17714e-22
1.29154e-21
2.90763e-22
7.82414e-23
3.04359e-22
2.74192e-21
3.26043e-21
3.34458e-21
4.67691e-21
4.30513e-21
3.99863e-21
4.50105e-21
4.41925e-23
4.59653e-22
3.21647e-21
1.26145e-21
1.27417e-21
2.29535e-21
2.86298e-22
2.53669e-21
8.78712e-21
1.60528e-21
3.54724e-21
1.21354e-21
1.92709e-22
2.66285e-22
2.80982e-22
5.83272e-21
2.01406e-22
1.15498e-21
1.5608e-21
3.4109e-22
8.43718e-23
7.16565e-21
9.74678e-22
7.41529e-21
8.50769e-22
1.32178e-21
9.06358e-22
1.8414e-21
1.44171e-21
3.32669e-21
8.11392e-22
2.23432e-21
3.79953e-21
2.08065e-21
1.01919e-21
3.63857e-22
1.95988e-21
5.80085e-22
2.68592e-21
2.49631e-22
1.51015e-21
5.30257e-21
4.60828e-23
1.72537e-21
4.02997e-22
1.10821e-21
2.70016e-21
1.41708e-21
9.2525e-21
1.10439e-20
2.51387e-21
2.02692e-21
1.39593e-21
3.29337e-21
8.29317e-22
4.16083e-21
3.38217e-21
5.10481e-22
5.58602e-22
3.39232e-21
1.5509e-22
8.59242e-22
1.18332e-21
4.79709e-22
1.91652e-21
2.34344e-21
1.68841e-21
3.90666e-22
2.7115e-21
1.91742e-21
4.62952e-21
7.75954e-22
1.31549e-21
2.05447e-21
4.38947e-21
8.84962e-22
6.40831e-21
2.471e-21
1.80539e-21
2.02493e-22
1.51751e-21
1.1908e-21
9.12091e-21
2.44098e-21
4.15551e-21
4.00747e-22
2.60451e-21
3.33815e-22
8.61792e-22
8.93718e-22
8.31719e-21
5.24037e-21
8.90122e-22
1.3297e-21
9.29808e-22
1.17643e-21
3.4122e-21
1.27964e-21
5.21711e-22
7.74187e-21
5.91565e-22
2.18287e-21
5.82205e-24
7.49386e-21
9.7598e-23
1.24862e-21
2.22889e-22
2.16593e-21
1.70255e-21
3.97118e-22
4.26729e-22
5.26488e-21
8.74074e-23
7.92245e-24
3.16291e-22
4.66533e-21
1.93373e-21
2.49833e-22
7.57568e-21
1.29285e-21
7.42761e-22
1.35505e-22
1.33793e-21
9.30478e-22
9.33296e-22
1.66791e-21
3.35052e-22
1.36554e-22
1.4412e-21
1.39838e-21
1.22761e-21
1.81673e-21
6.10893e-22
4.10234e-21
5.56374e-21
1.27768e-22
3.15179e-21
3.15414e-21
2.19612e-21
3.23107e-21
2.61549e-22
2.07197e-22
1.46469e-21
2.62719e-22
7.26139e-22
2.24266e-21
3.376e-21
1.26529e-21
4.14413e-21
1.20089e-21
1.85585e-21
1.16499e-20
6.99809e-22
1.49439e-21
1.18408e-21
1.05075e-21
1.02296e-21
4.79263e-21
2.93946e-21
4.09499e-22
1.37515e-21
8.48583e-22
5.41175e-21
1.45108e-21
3.38603e-21
2.58445e-22
3.6753e-21
1.67734e-21
7.33734e-22
7.89854e-21
2.82849e-21
1.16447e-21
5.77792e-21
3.49168e-21
7.35338e-22
1.45899e-22
7.47041e-23
5.76172e-21
4.19476e-22
8.2635e-21
6.20331e-22
1.78459e-21
4.239e-21
6.39432e-22
2.82773e-22
2.31086e-21
9.89343e-22
5.33775e-22
1.10853e-21
8.7916e-22
2.73809e-22
3.73586e-21
2.16866e-21
3.86129e-21
2.23495e-21
1.14347e-21
2.73036e-21
1.03413e-21
1.00645e-21
2.92519e-21
2.29635e-21
1.89699e-21
1.37044e-21
1.28256e-21
6.16456e-21
3.91138e-22
7.52614e-22
5.62539e-21
3.82751e-21
4.54444e-22
3.17865e-22
1.399e-21
3.25574e-22
1.22787e-21
1.81267e-21
6.2589e-22
2.79392e-23
1.7257e-21
2.51137e-21
7.12162e-22
1.15399e-22
1.39392e-21
1.19079e-21
2.18594e-21
1.36081e-21
2.14135e-21
1.36041e-21
6.28173e-21
5.76777e-21
2.99749e-21
5.59197e-21
1.15098e-21
1.13919e-22
2.23685e-22
9.77992e-22
2.48348e-22
1.92564e-24
2.65509e-22
2.35693e-22
9.22487e-21
1.53107e-21
4.08157e-21
2.84523e-21
4.10239e-22
5.4632e-23
1.71637e-21
6.94577e-22
3.32801e-21
2.13626e-21
3.1935e-21
4.89853e-21
1.81426e-21
7.12304e-21
3.70865e-21
3.03978e-21
2.40435e-21
4.46491e-21
1.91429e-22
5.57268e-22
1.42665e-21
1.47048e-22
3.52727e-22
1.10154e-21
5.50229e-22
8.96945e-22
2.67341e-22
4.84526e-21
2.43298e-21
1.17352e-21
2.71532e-21
1.57477e-21
6.30502e-21
4.18805e-22
2.10627e-21
1.14013e-21
1.82849e-21
3.18428e-21
1.35607e-22
8.37999e-22
3.55789e-21
3.87185e-21
2.46045e-23
6.82584e-22
1.0105e-21
7.34979e-21
3.0549e-21
2.25799e-22
1.26735e-21
1.92502e-21
8.47593e-23
1.72113e-21
1.26992e-21
1.99029e-21
2.47397e-21
1.32873e-22
1.0545e-21
2.14497e-21
2.83325e-22
8.98992e-22
2.00961e-21
9.00279e-23
2.2001e-21
4.38867e-21
6.15489e-21
2.69267e-21
6.12116e-22
1.09968e-21
6.19617e-21
6.30497e-21
5.7239e-21
6.56638e-21
9.52034e-22
7.04316e-22
1.77133e-21
2.70499e-22
3.31422e-21
1.092e-21
2.17264e-22
3.63882e-21
1.81154e-21
1.06405e-20
2.41363e-21
2.75235e-21
1.55151e-21
1.10648e-20
2.64396e-21
4.93276e-21
8.16466e-21
2.38854e-21
4.76931e-21
1.10785e-21
3.62325e-21
5.69577e-22
4.34172e-22
6.4047e-23
2.68952e-21
2.60023e-22
1.38478e-21
4.20989e-21
1.33168e-21
7.82212e-22
3.45459e-23
5.71129e-22
2.64263e-21
1.45452e-21
3.45654e-21
1.9703e-21
5.4895e-22
3.87651e-21
1.19972e-22
2.18359e-21
2.61197e-21
9.65587e-22
4.02153e-21
1.10275e-21
2.08451e-22
1.72673e-21
4.8362e-21
4.22361e-21
7.56792e-21
1.21491e-22
1.10514e-21
1.74812e-21
3.29717e-22
1.91517e-21
2.13718e-21
2.19226e-21
3.57958e-21
1.30987e-21
8.46341e-21
1.41726e-22
1.89436e-21
3.82513e-22
2.33505e-21
3.49633e-21
3.03991e-22
2.99545e-21
5.55157e-21
2.35395e-21
1.45093e-22
3.98273e-21
8.15354e-22
6.69868e-21
4.19646e-22
8.26558e-22
3.24554e-22
2.65121e-21
5.92243e-22
1.19389e-21
3.08954e-21
1.16324e-21
2.83148e-21
1.12027e-21
6.23197e-22
1.3858e-21
1.51816e-20
4.37269e-21
2.90151e-21
8.61495e-23
3.52366e-21
2.21638e-21
2.09564e-21
4.46896e-21
1.51695e-21
1.10932e-23
6.23792e-21
3.59982e-21
9.48347e-22
3.04847e-21
7.94452e-22
1.00576e-21
1.06531e-21
6.65099e-22
1.03666e-21
1.65018e-22
7.57928e-21
8.17582e-22
5.16398e-22
1.68262e-21
1.06806e-21
8.29775e-22
5.27259e-21
1.09363e-20
1.01732e-22
2.86633e-22
8.19959e-22
1.22818e-21
7.8703e-21
3.62396e-21
5.44384e-21
1.12527e-21
1.67173e-21
4.05349e-21
1.76962e-21
1.30079e-21
9.95115e-21
2.21882e-21
2.61374e-21
2.45758e-21
2.87143e-21
6.54994e-22
6.27844e-21
2.65788e-21
6.02207e-22
1.10122e-21
1.74772e-22
2.11564e-21
2.25382e-22
7.01285e-22
4.16524e-21
3.96045e-21
2.38755e-21
8.76689e-22
4.95849e-22
5.74087e-22
1.82487e-21
2.4564e-21
3.73549e-21
1.19476e-21
4.05735e-21
3.02426e-22
1.23794e-21
1.76917e-22
5.68582e-22
2.28467e-21
2.43458e-21
1.02001e-22
1.09458e-21
4.09104e-21
2.24047e-21
5.69632e-22
2.37449e-21
1.23041e-21
3.47545e-22
1.48005e-21
4.60034e-21
5.76504e-22
1.01573e-21
3.5042e-22
1.94164e-21
3.51173e-22
1.14253e-21
2.30098e-21
5.77844e-22
4.51646e-21
1.08843e-21
6.54241e-21
2.69436e-21
2.68829e-21
1.07818e-21
4.46861e-22
1.05617e-20
4.17304e-22
8.65162e-22
3.91429e-21
1.46155e-21
4.5008e-21
7.72265e-22
3.56033e-21
4.62025e-21
6.03703e-22