/*--------------------------------*- C++ -*----------------------------------*\
  =========                 |
  \\      /  F ield         | OpenFOAM: The Open Source CFD Toolbox
   \\    /   O peration     | Website:  https://openfoam.org
    \\  /    A nd           | Version:  7
     \\/     M anipulation  |
\*---------------------------------------------------------------------------*/
FoamFile
{
    version     2.0;
    format      ascii;
    class       scalarField;
    location    "0/lagrangian/dsmc";
    object      Ei;
}
// * * * * * * * * * * * * * * * * * * * * * * * * * * * * * * * * * * * * * //


9216
(
9.85761e-21
3.27445e-21
1.27514e-21
1.34198e-20
5.08972e-21
1.4923e-22
4.16425e-21
5.67167e-21
5.5227e-21
2.0938e-21
5.94341e-22
7.74527e-21
5.41212e-21
4.00157e-22
1.19777e-21
2.94107e-21
5.22907e-21
2.20918e-22
8.92127e-22
4.75983e-22
6.44151e-21
4.57988e-21
2.80064e-21
6.36194e-21
5.28943e-21
8.26789e-22
2.67662e-21
3.27976e-21
9.44232e-22
7.4635e-24
4.32588e-22
2.97054e-21
5.5017e-22
7.34339e-22
5.63314e-21
9.62778e-21
1.74105e-21
8.40331e-21
8.08737e-21
6.39336e-21
6.29439e-21
2.87633e-21
2.75558e-21
6.11157e-21
6.39559e-21
4.73376e-21
3.3883e-22
7.42972e-21
3.14357e-21
3.01061e-21
2.41822e-21
1.16753e-20
5.3222e-21
1.73327e-21
1.09835e-21
5.96505e-21
1.4576e-21
7.92928e-21
1.27207e-20
5.33454e-22
1.33625e-20
5.54896e-21
3.5511e-21
3.16595e-21
6.26376e-21
9.47774e-21
7.14183e-22
2.60239e-21
1.09368e-21
3.25382e-22
2.08932e-21
1.61626e-21
2.11779e-21
1.46371e-21
2.68573e-21
7.17958e-21
3.23429e-22
4.21755e-21
3.07443e-21
1.84324e-20
5.76844e-22
3.13063e-21
5.97777e-21
9.97702e-22
2.20193e-21
5.09699e-21
4.36793e-22
3.63471e-21
5.1756e-22
9.1807e-22
4.93998e-21
2.28586e-21
5.03613e-21
3.78041e-21
7.06498e-21
4.84764e-22
3.48852e-21
5.14821e-21
2.28001e-21
3.54233e-21
8.86959e-21
6.09088e-21
1.45865e-21
8.44332e-21
8.63485e-21
6.98166e-21
1.46226e-20
1.60123e-21
4.14937e-21
7.12343e-22
5.27829e-21
5.1623e-21
8.90894e-21
1.68402e-21
2.5256e-21
1.91761e-21
2.09056e-21
4.92672e-22
5.8108e-21
4.25387e-22
7.50172e-21
4.91926e-21
4.89645e-21
9.74917e-22
7.67462e-21
1.9348e-22
4.45392e-22
6.65035e-21
5.79549e-21
1.3391e-21
3.1308e-21
8.62598e-23
2.73176e-21
1.42358e-21
7.20898e-21
6.81645e-21
1.05251e-21
1.96614e-22
2.71173e-22
5.0709e-21
5.45454e-21
5.14628e-21
3.81067e-21
4.12836e-21
1.58862e-22
2.09932e-22
4.10413e-21
3.81028e-21
2.18336e-21
1.37563e-20
1.66705e-21
1.13771e-21
2.8908e-22
3.64435e-21
1.97762e-21
3.77509e-21
2.57488e-20
1.30283e-20
1.35753e-21
3.06328e-21
1.85824e-21
8.76634e-21
1.04256e-20
2.11997e-20
2.44699e-21
2.93541e-21
1.02774e-21
7.09757e-23
5.12416e-21
5.09748e-21
1.72842e-21
7.71638e-21
3.76185e-21
1.08844e-20
4.47237e-21
4.56112e-21
7.20933e-22
8.25566e-22
5.77533e-21
7.7666e-22
5.29838e-22
9.29358e-21
4.40692e-21
1.02911e-21
1.92079e-21
1.11681e-22
1.65661e-20
2.79926e-21
6.54321e-22
3.69409e-21
7.70437e-21
2.39843e-22
9.44708e-21
6.32115e-21
1.3098e-20
2.75928e-21
5.29071e-21
1.37821e-24
2.76115e-21
1.50274e-21
1.31773e-21
1.19987e-21
4.09125e-21
2.15084e-22
7.59211e-22
6.1303e-21
5.4012e-21
1.77102e-20
5.65927e-21
2.81344e-21
7.40529e-21
6.59062e-21
1.3578e-20
3.64166e-21
3.69041e-23
4.71334e-21
5.83252e-21
5.5458e-21
1.09862e-20
8.9592e-22
9.46795e-22
1.47337e-20
4.71474e-22
5.79762e-21
1.23938e-21
1.06379e-21
2.00695e-21
2.56139e-21
8.35296e-21
7.80083e-21
4.61353e-21
1.32288e-21
1.08554e-20
2.30882e-21
2.03566e-22
2.47301e-21
2.40024e-21
2.64595e-22
1.74755e-21
1.46557e-21
5.22326e-21
2.03243e-21
4.69405e-21
3.40331e-21
8.29648e-22
5.40439e-21
1.28797e-21
1.00062e-21
5.38946e-22
3.81043e-21
4.46765e-21
1.06085e-21
7.08123e-21
5.39572e-21
2.88171e-21
1.58878e-20
2.15104e-21
6.43651e-22
3.68788e-21
1.12871e-20
1.41465e-20
1.48157e-20
5.18205e-22
5.09582e-22
5.81442e-21
1.32127e-20
3.03165e-22
1.31317e-22
3.26304e-21
6.97934e-21
9.84552e-22
8.00935e-21
2.58841e-21
5.01422e-23
4.49081e-23
6.54686e-21
2.59445e-21
2.4503e-22
3.4307e-21
6.01983e-21
3.79631e-21
3.54926e-21
1.1842e-20
8.58123e-22
1.81513e-21
1.84204e-21
6.41436e-21
2.98969e-22
5.00724e-21
2.63463e-23
4.97512e-21
1.4187e-21
6.85613e-22
2.03812e-22
5.2809e-22
1.16328e-20
6.56544e-21
3.78391e-22
5.37598e-22
8.43493e-21
6.59583e-21
1.09421e-20
2.70355e-21
8.65307e-22
1.6715e-21
1.91674e-21
1.22649e-21
4.20192e-21
4.47872e-21
7.04423e-22
2.22645e-21
4.38693e-21
7.08072e-21
1.89573e-21
9.52414e-22
1.91476e-21
3.76622e-21
3.80954e-21
1.00159e-20
9.19724e-22
7.85804e-22
3.16261e-21
3.3368e-21
1.00335e-20
3.27571e-21
1.86099e-21
3.67781e-22
3.12337e-21
3.55551e-21
6.59613e-21
5.99736e-21
4.26641e-22
3.23188e-21
4.99832e-21
2.32536e-21
6.42615e-21
5.09672e-21
3.14152e-21
1.95714e-21
3.25438e-21
2.31471e-21
6.64148e-21
2.21261e-21
1.6727e-22
2.08353e-21
5.73011e-21
1.78546e-21
5.34197e-21
7.38557e-21
7.31017e-21
3.72303e-21
7.39587e-23
3.16374e-21
5.01172e-21
4.63346e-21
5.9134e-21
2.53013e-21
5.72958e-22
1.34909e-20
2.15976e-21
4.00414e-21
3.28007e-21
5.88701e-22
6.90152e-21
8.78775e-22
1.08462e-21
7.5026e-21
4.02e-21
2.61505e-21
5.9737e-21
2.38021e-21
5.86864e-21
1.01466e-21
6.83157e-21
6.82462e-23
1.88941e-21
3.80778e-21
3.42066e-22
9.79304e-21
1.16241e-20
7.31799e-21
2.20093e-21
3.52331e-21
2.75346e-22
1.79774e-21
4.41422e-21
1.26474e-20
2.85364e-21
1.02178e-21
9.14324e-21
8.44261e-22
1.45445e-21
7.43786e-21
1.16645e-20
4.02399e-21
3.34347e-21
9.47493e-22
5.74421e-21
2.16458e-22
2.62542e-21
2.73877e-21
7.01439e-21
1.66498e-22
8.32686e-21
2.12058e-21
3.93396e-21
1.08946e-21
7.27899e-21
1.3047e-20
6.66405e-21
1.06189e-21
1.63285e-21
1.12763e-21
1.28955e-20
6.03037e-22
1.54573e-21
8.13526e-22
1.96039e-21
1.35805e-21
4.01166e-21
2.5722e-21
5.53504e-21
1.92574e-22
1.0282e-21
2.10682e-22
2.58599e-21
2.55733e-21
1.15325e-21
5.54125e-21
8.17103e-21
8.40507e-21
2.40521e-22
3.28028e-22
2.23892e-21
3.01897e-21
1.72158e-21
3.51127e-21
3.12328e-21
1.13916e-20
2.32359e-21
3.12864e-21
1.7647e-21
5.41242e-21
3.1033e-21
1.58314e-20
6.44857e-22
2.75488e-21
5.47452e-21
1.12624e-20
1.4423e-21
5.7929e-21
4.43036e-21
3.55282e-21
3.09127e-21
1.7324e-21
4.38193e-21
9.54576e-22
8.30048e-21
8.12937e-21
9.0595e-21
1.26443e-20
1.39389e-21
3.63768e-21
5.67047e-21
3.83018e-21
7.71888e-22
3.22132e-23
1.3216e-21
2.64634e-21
1.00145e-21
5.5025e-21
4.18834e-21
1.35079e-20
5.13597e-23
3.41803e-21
1.16313e-22
1.5383e-20
9.70705e-22
3.70636e-21
2.84577e-22
1.82796e-21
1.65403e-21
1.70382e-21
1.15205e-21
3.01765e-21
2.25675e-21
6.16829e-21
5.48347e-21
1.50428e-21
5.03656e-21
1.79405e-21
1.12452e-20
4.16417e-21
4.8673e-21
5.43935e-21
9.50068e-22
1.37557e-22
9.02229e-21
7.27909e-21
5.58667e-22
1.44717e-21
1.33146e-22
1.30524e-21
2.11169e-21
6.52344e-22
1.99626e-21
8.25868e-21
8.13854e-21
2.16905e-21
3.39453e-21
8.17353e-22
1.44249e-21
6.54828e-22
1.19732e-20
4.68139e-22
3.92228e-22
7.39854e-21
3.84235e-21
2.50145e-22
1.49944e-22
2.04265e-20
2.06611e-20
1.21276e-20
1.00832e-20
1.08336e-20
7.85297e-21
2.05675e-21
1.94288e-20
9.58929e-22
1.33453e-21
6.33234e-21
4.63898e-21
1.29413e-21
6.00392e-22
2.51061e-21
3.0963e-21
2.17189e-21
3.57758e-21
1.06478e-21
4.43441e-21
3.7215e-21
3.40583e-22
3.91545e-21
1.50777e-21
1.91115e-21
4.3218e-21
4.3018e-21
1.55718e-20
2.15182e-21
4.04729e-21
1.14942e-21
9.04374e-21
8.27649e-21
4.69338e-21
2.81277e-21
1.84473e-23
3.53689e-21
6.32017e-22
1.1311e-20
1.54043e-21
6.15463e-23
4.50666e-22
5.54672e-22
1.13493e-22
3.4366e-21
1.12354e-21
7.52375e-21
7.77443e-21
3.94246e-21
1.84195e-21
1.94262e-21
9.32431e-21
8.37001e-21
1.50757e-21
6.80589e-21
1.72696e-21
4.22916e-22
3.75884e-21
1.56556e-20
4.11342e-21
2.98974e-21
2.18112e-21
8.99697e-21
7.7501e-23
3.82713e-21
1.15081e-20
1.1158e-20
1.775e-22
2.12988e-21
1.72405e-21
8.30326e-21
7.05798e-21
1.03387e-20
3.48743e-21
6.87904e-22
3.46851e-21
3.96768e-22
4.11076e-21
1.69803e-21
7.76004e-21
7.124e-21
4.64796e-21
2.22267e-20
9.02651e-22
1.31276e-21
1.33258e-21
1.34752e-20
5.66633e-21
9.47945e-21
1.23098e-20
6.52795e-21
1.76222e-21
1.45212e-21
3.10348e-21
4.79687e-21
3.52574e-21
7.17189e-23
9.06839e-22
5.57189e-21
9.01117e-22
2.89585e-21
6.44024e-21
3.74008e-21
2.72369e-21
3.58023e-21
1.43792e-21
6.03615e-21
2.61068e-21
2.89975e-21
5.28968e-21
1.57301e-20
1.36759e-20
1.33337e-20
3.69671e-21
3.14147e-21
8.16598e-21
6.75391e-21
1.59628e-21
9.53861e-22
3.3798e-21
8.1273e-21
1.86083e-21
1.16972e-22
1.79869e-21
2.67258e-21
1.12816e-21
2.84123e-22
4.48453e-21
4.80979e-22
4.06848e-21
1.06729e-20
4.61549e-21
4.79616e-21
6.77442e-21
3.84378e-21
2.7255e-21
1.37069e-21
7.16254e-23
6.51444e-21
8.31453e-22
1.41678e-20
7.16756e-22
2.66469e-21
1.68513e-22
3.03469e-21
6.41166e-21
2.02658e-21
6.09206e-22
1.85333e-22
6.22596e-21
2.64462e-22
3.80337e-21
4.80463e-22
4.01097e-21
7.82238e-22
2.9819e-22
7.02787e-22
2.25732e-21
3.24137e-21
3.30688e-21
1.40655e-21
1.4087e-24
2.74562e-21
1.91782e-20
5.58273e-21
1.09201e-21
3.5197e-21
2.03206e-21
3.3713e-21
1.06111e-21
1.16271e-20
1.52216e-21
1.0554e-21
2.22108e-21
5.82555e-22
1.29179e-20
3.79239e-21
8.62593e-21
5.67743e-22
6.10593e-21
4.67075e-21
2.74268e-21
2.89233e-21
2.78368e-21
8.16875e-21
1.46282e-20
3.49737e-21
7.46e-21
2.59973e-22
5.97965e-21
9.87849e-21
6.86315e-22
5.01626e-21
1.168e-20
1.20287e-20
6.90142e-22
1.10525e-20
9.42883e-21
6.90505e-21
2.20608e-22
1.91852e-21
1.5991e-21
5.49153e-21
1.98273e-21
4.49552e-21
3.13282e-21
4.264e-21
1.45989e-20
9.30371e-21
1.637e-21
3.61647e-22
2.91156e-21
7.74942e-21
3.42565e-21
1.95594e-21
1.24882e-21
9.01988e-21
8.14831e-21
8.39166e-21
6.90489e-22
8.10324e-22
9.60891e-21
1.25107e-20
4.27811e-22
1.89062e-21
2.99006e-21
1.67817e-21
1.62467e-21
8.9105e-22
2.43394e-21
2.0294e-21
5.10797e-21
9.56041e-21
4.34751e-22
3.93696e-21
1.03601e-21
2.09969e-21
3.64228e-21
4.34367e-21
2.70942e-21
6.24255e-21
5.96296e-21
4.59869e-21
1.33513e-21
2.48261e-22
9.38338e-21
2.05599e-21
8.18052e-22
1.22732e-20
2.33303e-21
5.12577e-21
2.86197e-21
1.01805e-20
5.45415e-21
3.97911e-22
8.24289e-22
2.67017e-21
2.85599e-22
2.59639e-21
1.61967e-21
8.37561e-21
7.5926e-21
1.11958e-21
2.84343e-21
4.92906e-21
5.96302e-21
7.69585e-21
1.83446e-21
1.25642e-21
6.20366e-21
6.96332e-21
1.38051e-21
6.60296e-21
8.766e-21
8.73558e-21
1.89575e-21
2.43288e-21
1.64045e-21
3.03023e-21
2.15864e-21
9.96619e-21
5.19842e-21
4.43684e-21
5.52576e-21
2.5354e-21
2.99663e-21
1.09554e-21
9.18259e-21
3.64885e-21
1.37319e-20
1.22906e-21
2.13886e-20
3.13717e-21
1.37441e-21
8.53558e-21
3.60429e-21
4.56153e-22
4.7872e-21
2.73693e-21
2.26077e-21
4.85909e-22
8.72791e-23
4.22378e-21
4.3248e-22
2.51808e-21
3.54275e-21
5.24347e-22
1.41714e-21
1.03412e-22
5.09184e-21
1.96324e-20
4.58493e-22
5.69616e-21
2.35548e-22
5.84167e-21
7.38818e-21
5.45445e-21
4.23566e-22
7.20558e-22
5.37944e-21
1.05882e-21
3.63553e-21
4.96638e-22
2.83258e-21
2.38334e-21
4.07013e-22
8.0977e-21
1.18831e-20
2.51772e-21
2.93873e-21
5.36769e-22
4.07463e-21
4.04482e-22
2.83513e-21
1.97782e-21
5.6179e-23
5.08681e-21
5.96599e-21
2.27694e-21
3.9586e-23
5.61441e-21
5.92951e-21
1.20765e-20
2.01044e-21
2.80289e-21
3.12933e-21
4.46816e-21
8.11949e-21
3.79755e-21
7.25703e-21
1.0244e-20
3.9711e-21
1.19952e-20
7.60577e-21
1.03369e-21
1.39075e-20
6.59298e-21
1.47036e-20
5.8015e-21
7.41739e-23
1.01207e-21
1.98058e-21
2.07657e-21
1.44242e-21
4.01959e-21
2.1595e-21
1.06529e-22
3.31286e-21
1.70599e-21
4.18785e-22
7.23511e-22
2.71673e-22
2.10782e-22
4.43974e-21
2.94004e-21
8.81948e-23
6.62347e-21
4.12068e-21
3.96183e-21
2.70771e-21
5.10373e-21
4.14517e-21
1.27355e-21
6.53229e-21
1.38567e-21
6.13735e-21
3.65608e-21
2.39919e-21
5.98318e-21
6.82245e-22
2.80402e-22
6.39709e-21
6.28456e-21
9.89103e-21
2.91397e-21
1.37828e-20
6.46906e-21
3.00432e-21
1.92503e-21
1.98712e-21
5.34112e-21
5.03951e-22
1.19541e-21
1.24302e-20
2.70156e-20
2.75269e-22
4.94488e-21
3.10386e-21
7.15934e-21
5.19069e-21
2.73588e-21
2.04845e-21
3.4399e-21
9.97462e-21
8.10677e-22
9.92662e-22
4.28935e-21
4.42187e-21
4.79446e-21
3.25685e-21
1.84186e-23
9.67075e-22
3.06947e-21
5.10065e-21
1.00317e-21
2.0088e-21
5.08082e-21
3.23368e-21
6.97673e-21
1.42759e-20
6.2532e-21
2.07347e-21
5.11305e-21
5.14449e-22
4.86308e-21
1.83399e-21
2.07117e-21
4.19184e-22
3.31226e-22
5.67042e-22
5.61756e-21
5.59807e-21
4.50915e-21
4.74201e-21
1.90573e-21
2.91085e-21
3.1552e-21
1.06944e-21
1.0525e-21
1.8916e-20
1.46224e-23
1.23885e-20
7.08509e-22
1.8754e-22
7.4173e-21
6.27014e-21
1.49975e-20
1.28286e-21
1.4898e-21
1.58718e-22
7.06448e-21
1.29409e-20
2.24805e-21
6.28411e-21
4.72429e-21
8.97678e-22
9.56199e-22
2.56883e-21
7.67041e-21
1.85531e-21
8.80755e-21
7.48313e-22
3.54298e-21
1.78804e-21
2.68167e-21
2.05929e-22
4.19549e-21
1.02762e-20
1.69572e-21
7.62779e-22
4.10469e-21
1.04175e-20
9.88678e-22
1.54517e-21
2.81734e-21
8.97799e-23
4.86027e-21
4.21056e-21
1.41963e-20
1.15454e-21
3.83655e-21
3.49826e-21
1.23854e-20
1.08044e-22
2.90989e-21
6.79843e-21
2.24761e-21
1.14202e-22
3.40205e-21
3.49711e-22
3.06933e-21
1.45277e-21
5.93197e-21
4.73027e-21
5.09072e-21
1.64367e-20
1.10008e-21
2.90823e-21
1.60006e-21
2.039e-21
1.36387e-21
4.03129e-21
5.2538e-21
1.11264e-20
2.11708e-21
6.81922e-22
1.75797e-22
7.42653e-21
8.27146e-21
5.0502e-21
2.07783e-22
1.73672e-21
6.65268e-22
2.18803e-21
2.04107e-22
6.56252e-21
1.4249e-21
7.28282e-21
3.20405e-21
1.59115e-21
4.50295e-21
1.89192e-21
2.43302e-23
3.48346e-21
2.52711e-21
5.41581e-21
4.24262e-21
1.79551e-21
4.86589e-21
5.06315e-21
5.52976e-21
1.04634e-21
3.24931e-21
7.40975e-22
2.06517e-21
3.93636e-22
2.80935e-21
1.08722e-21
4.78918e-21
1.02912e-21
9.94561e-22
7.36896e-22
4.04529e-21
2.67415e-21
1.40235e-21
8.41128e-21
4.20012e-21
1.29621e-20
9.83769e-22
6.08155e-22
4.93431e-24
3.02582e-21
2.78227e-21
6.57573e-22
1.31554e-22
9.28647e-21
1.72616e-22
1.74945e-22
1.22215e-20
5.27721e-21
3.61281e-21
6.39763e-21
1.18138e-20
9.24061e-22
8.57915e-21
4.33217e-21
4.88195e-21
1.51277e-20
1.84818e-21
1.97094e-21
1.55056e-21
5.9488e-22
2.53923e-21
2.03271e-21
6.15421e-21
2.04469e-22
3.26e-21
5.64939e-21
1.41411e-21
2.43523e-21
5.10838e-21
2.19152e-21
2.12292e-21
3.85167e-21
2.82685e-22
1.34048e-21
1.41716e-22
1.36122e-21
1.74478e-21
2.12409e-20
5.0384e-21
3.54396e-21
2.47324e-21
6.11721e-21
6.57729e-21
1.09572e-20
9.14968e-22
8.44707e-22
3.71522e-21
7.60712e-22
4.7936e-21
7.85992e-22
7.41475e-21
2.97094e-21
2.259e-21
8.83975e-22
3.38604e-21
2.77932e-20
3.63958e-22
1.16636e-21
4.55145e-21
3.28618e-21
5.23611e-21
4.0832e-21
1.43602e-22
5.33644e-21
2.49952e-21
8.04673e-23
3.11203e-21
5.97155e-21
1.22063e-21
3.08301e-21
3.90948e-21
6.82336e-22
6.28758e-22
4.70874e-21
1.58328e-21
4.65261e-21
4.65021e-22
3.73571e-21
1.64404e-21
5.17711e-21
1.1438e-21
2.08882e-20
5.10502e-21
1.18739e-21
5.65177e-21
6.32516e-22
9.84274e-22
5.75393e-22
5.21307e-21
2.61376e-21
3.77846e-21
1.02519e-21
9.58851e-22
1.11732e-21
1.8482e-21
9.99659e-21
4.99823e-21
3.86196e-21
1.16641e-21
4.66469e-21
1.67996e-21
3.11489e-21
2.27304e-21
1.21774e-20
4.54028e-21
4.66513e-22
2.28066e-21
1.9392e-21
9.91002e-22
1.54402e-21
5.19349e-21
5.54495e-21
6.87381e-21
2.96814e-21
5.84982e-21
7.2661e-21
7.5711e-21
1.88504e-21
1.21462e-21
1.30789e-21
1.19366e-20
5.94142e-21
2.28982e-21
8.14406e-21
2.0528e-21
1.50783e-20
4.05137e-21
3.47845e-21
3.60409e-21
2.37143e-21
1.79394e-21
4.10291e-21
4.30367e-21
1.30344e-22
1.3884e-20
5.42068e-22
4.6959e-21
1.88444e-21
9.07834e-22
7.61112e-22
4.09083e-21
4.74235e-22
6.26448e-21
8.50183e-21
3.82849e-22
9.28027e-21
1.80345e-21
1.65879e-21
5.21077e-21
9.76704e-22
5.58037e-21
4.05486e-21
1.34728e-20
3.03207e-21
1.53425e-22
4.20037e-22
1.61818e-22
6.17797e-21
5.16759e-21
6.62069e-22
2.21286e-21
7.44442e-21
5.34111e-21
1.1873e-21
1.47908e-21
4.82468e-21
5.32028e-22
6.53294e-22
1.12613e-20
2.16282e-21
1.07677e-20
1.03903e-20
3.95834e-21
7.17166e-21
3.64214e-21
2.46063e-21
5.45244e-21
1.64095e-20
2.27663e-22
3.81067e-21
1.14505e-21
1.71218e-20
3.90195e-21
4.07258e-21
2.45441e-21
1.66317e-20
3.41706e-21
4.96449e-21
2.15705e-21
2.28001e-22
2.71471e-21
1.4634e-21
8.48317e-22
4.2145e-21
6.83149e-21
8.87304e-23
2.96432e-21
3.79933e-21
1.12977e-20
3.93776e-21
2.15063e-21
3.35905e-21
6.64105e-22
3.19548e-21
1.8666e-21
3.50757e-21
4.41665e-21
9.27514e-22
6.83909e-23
2.98753e-21
3.60192e-21
7.85869e-21
1.4065e-22
3.99075e-21
1.16246e-20
3.36567e-21
1.17021e-20
4.3003e-21
3.80357e-21
9.95795e-22
3.39358e-21
3.45855e-21
2.02767e-21
1.96399e-21
2.11376e-21
9.28481e-21
1.1997e-20
4.43136e-22
2.59327e-21
1.52402e-21
2.22992e-21
7.93388e-22
2.43747e-21
3.35746e-21
1.01792e-22
8.87255e-21
9.14936e-21
1.35486e-21
1.19418e-20
5.01374e-22
1.17826e-21
6.52808e-22
9.03199e-21
1.05734e-20
8.14727e-22
6.19459e-22
3.49122e-21
3.40105e-21
7.72117e-22
4.34935e-21
3.08338e-21
1.07594e-21
5.80749e-21
5.45067e-23
9.14183e-22
1.85905e-20
3.91461e-21
9.0612e-22
1.43527e-21
1.50275e-21
2.39239e-21
1.37305e-21
1.01662e-21
2.93781e-21
1.81822e-20
1.61676e-21
2.21454e-20
1.87291e-21
2.42423e-22
2.90643e-21
6.7494e-22
6.54648e-21
5.48219e-21
1.16795e-20
2.9541e-21
6.33712e-21
5.96784e-22
2.9625e-21
2.67057e-22
3.32419e-21
4.23658e-21
1.12352e-21
7.83914e-21
2.6451e-22
1.11187e-20
1.88513e-21
3.93141e-22
1.62633e-21
4.1078e-22
4.78276e-21
3.19089e-22
9.19763e-21
2.28091e-21
2.96071e-21
2.11245e-21
3.13438e-21
5.10507e-21
1.26665e-22
4.93188e-21
4.47938e-22
1.04029e-22
6.25126e-21
5.72602e-22
1.01435e-21
5.16232e-21
6.71633e-21
4.76454e-21
1.62675e-21
9.81358e-22
4.29401e-22
3.78193e-21
5.26499e-22
4.54463e-22
1.32905e-20
1.41867e-21
1.32013e-22
7.9478e-22
3.68593e-21
1.78556e-21
3.16516e-21
1.72682e-21
1.54062e-21
5.57404e-21
2.73737e-21
2.08354e-21
2.30696e-21
6.61265e-21
6.46897e-22
6.19868e-21
2.90945e-22
8.11138e-22
4.86999e-21
1.60125e-21
1.55943e-21
4.52378e-22
6.23793e-21
2.95694e-21
1.9517e-21
9.91023e-21
2.90528e-21
2.87288e-21
8.01168e-21
3.71815e-22
1.25251e-20
2.04218e-21
1.31322e-20
3.38993e-21
2.66529e-21
5.49845e-22
3.17885e-21
5.89915e-22
6.69561e-21
5.06694e-21
3.87508e-21
1.68957e-21
1.75309e-21
8.98002e-22
1.38796e-21
2.02135e-21
1.07777e-21
4.2094e-21
2.20203e-21
7.29233e-21
4.56217e-21
1.21585e-20
5.39201e-21
1.55924e-20
1.42297e-20
1.26648e-21
3.99696e-21
4.90535e-21
6.27157e-21
6.21629e-21
8.2409e-21
1.34802e-21
6.60481e-22
1.09124e-21
3.79423e-21
9.45086e-22
1.0977e-21
5.70552e-22
2.95561e-23
5.60213e-21
4.61091e-21
3.4358e-21
2.12991e-21
4.9567e-21
3.59133e-21
9.09723e-22
4.73393e-21
2.63754e-21
1.04959e-20
3.41358e-21
1.11131e-21
1.11085e-20
7.90663e-22
1.66396e-21
1.54388e-20
2.34483e-21
2.56835e-21
1.93261e-21
6.04254e-21
9.62061e-23
4.19509e-22
1.26919e-21
2.42032e-20
8.97371e-22
9.08492e-21
1.57487e-21
6.18224e-22
1.55821e-20
2.18805e-21
1.90806e-20
2.55317e-21
3.06441e-21
1.14252e-21
2.82871e-21
7.21378e-21
7.69907e-21
1.15827e-21
9.79619e-22
4.15195e-21
2.93569e-22
3.27464e-22
3.54075e-21
6.76019e-21
8.56989e-21
1.6688e-21
1.45739e-21
3.31777e-21
8.13357e-21
5.75955e-21
1.14405e-21
1.63387e-21
1.15878e-21
8.36335e-22
8.54832e-22
5.86253e-21
3.28791e-21
1.22571e-21
2.73581e-21
8.30868e-22
1.58397e-21
6.82521e-22
5.89812e-21
1.06602e-20
1.67002e-21
5.14101e-22
9.54067e-21
9.7283e-21
1.14731e-21
4.0636e-21
8.96808e-22
6.87915e-21
6.14038e-22
2.70875e-21
5.73441e-21
1.82052e-21
8.38973e-21
8.18235e-21
1.01434e-21
4.92953e-21
5.23498e-22
2.49062e-21
4.34194e-21
6.69401e-22
1.50813e-21
6.40139e-21
3.0586e-21
7.08275e-21
4.15794e-21
2.95525e-21
5.75211e-21
5.4042e-22
9.36448e-21
5.13255e-22
3.99546e-21
2.67383e-22
1.37462e-20
9.35767e-22
5.68646e-23
3.93855e-22
9.8824e-21
2.75932e-21
2.54397e-21
6.19459e-22
5.92796e-21
4.92121e-21
1.5387e-20
2.0576e-21
3.77759e-21
2.9031e-21
2.98837e-21
6.83763e-21
3.36765e-21
3.11469e-21
3.96053e-22
8.27521e-21
7.1811e-21
4.27974e-21
2.52156e-23
4.21562e-21
7.01172e-21
6.91673e-21
8.61931e-23
2.24162e-21
2.63683e-21
1.2611e-21
5.81737e-21
2.5669e-22
2.66866e-21
2.33318e-22
3.86642e-21
4.5327e-21
2.56303e-21
1.12267e-21
6.10181e-22
1.62034e-21
3.92465e-21
2.63434e-21
3.67862e-21
1.28924e-21
8.94715e-21
1.02948e-20
1.75656e-21
3.77348e-22
3.68238e-21
8.24554e-21
1.68635e-21
3.7619e-22
8.74195e-21
2.94382e-21
1.17195e-21
2.08939e-21
2.82818e-21
1.03549e-20
4.42799e-21
5.78505e-21
2.21722e-22
7.30799e-21
3.11011e-21
9.87969e-21
2.1549e-21
2.76007e-21
9.44092e-21
3.56498e-21
5.57643e-21
3.85269e-21
1.4188e-21
1.63319e-21
3.4388e-21
3.16143e-21
4.25072e-21
1.57049e-22
6.2704e-21
1.90936e-21
1.23892e-20
4.48425e-22
4.27301e-21
2.74345e-22
8.78393e-21
3.02891e-21
5.98628e-21
4.75525e-21
1.27296e-20
9.16372e-22
2.23632e-22
1.06292e-21
1.35485e-22
3.44796e-21
8.6542e-21
1.24391e-20
7.34318e-22
1.85424e-21
4.76501e-21
3.0926e-22
4.74207e-23
6.41029e-21
5.34072e-21
3.12161e-22
1.57478e-21
6.28545e-21
7.86372e-21
5.95454e-22
3.43853e-21
5.27093e-21
2.69869e-21
6.32473e-21
1.12874e-21
2.60221e-21
8.06882e-22
5.36955e-21
6.73592e-22
9.75003e-22
5.92704e-21
2.39808e-21
1.9171e-22
3.79344e-22
4.87661e-21
6.56858e-21
5.90745e-22
1.21661e-21
5.2711e-21
5.61721e-21
1.69648e-22
3.65867e-21
1.68957e-21
6.03811e-21
7.01997e-21
7.40798e-22
2.16239e-21
2.49194e-21
2.09776e-21
1.41962e-21
4.08875e-21
1.23366e-20
1.82397e-21
2.49783e-21
1.69047e-21
2.18698e-20
1.69973e-21
7.88375e-21
2.76857e-23
2.17468e-21
9.47466e-22
5.13068e-21
1.00371e-21
7.10938e-21
3.94386e-21
1.48465e-21
1.00017e-21
2.23566e-21
4.45686e-21
9.79607e-22
7.11772e-22
1.471e-21
1.12253e-22
4.29648e-21
4.30736e-21
3.03425e-22
2.70072e-21
4.46086e-21
2.31854e-21
1.27244e-20
4.38382e-21
2.41124e-21
3.31116e-21
1.1942e-21
2.49029e-21
4.98175e-21
1.6088e-20
2.05644e-21
7.82355e-21
7.91234e-22
9.73679e-22
9.8686e-21
4.30085e-21
2.84818e-23
3.12707e-21
7.51722e-21
4.74379e-21
4.05785e-21
4.26449e-21
1.49654e-21
3.97755e-22
1.24386e-21
1.20607e-21
9.50307e-21
2.19503e-21
2.93686e-21
3.77107e-21
3.03225e-21
4.80723e-21
1.61818e-21
1.16788e-20
1.5011e-20
9.21409e-21
1.42993e-20
7.02033e-21
2.05574e-20
2.52912e-21
1.11164e-21
1.08815e-20
4.58838e-21
3.74677e-21
1.37269e-20
5.58667e-21
1.8472e-21
5.17253e-21
5.17187e-21
2.83299e-21
1.38119e-21
5.18768e-21
6.80725e-21
3.16269e-21
1.87603e-21
4.19261e-22
1.082e-20
4.02313e-21
1.17698e-20
7.79161e-22
5.2122e-21
2.67341e-22
6.36852e-22
1.20511e-21
2.64595e-21
3.22187e-21
1.24047e-20
3.10977e-22
6.12737e-21
2.18769e-21
6.71298e-21
2.64951e-21
1.20678e-21
1.15196e-20
1.13632e-21
5.47059e-21
2.02849e-21
6.58768e-21
8.56566e-21
7.54679e-21
7.83372e-21
3.644e-21
2.50704e-21
2.0678e-21
3.45472e-21
5.15157e-21
3.65199e-21
4.71885e-21
8.7233e-21
1.57197e-20
1.97701e-20
1.23133e-21
7.95484e-21
1.42678e-22
6.93557e-21
1.51224e-21
1.86194e-20
3.79844e-21
1.11125e-22
8.18115e-21
1.3374e-21
6.22996e-21
5.1483e-21
2.32863e-21
1.54947e-21
2.59335e-21
3.56823e-21
7.80611e-22
6.40658e-22
1.48282e-21
4.35264e-22
1.39158e-22
9.93927e-21
1.55285e-21
1.05644e-20
4.8145e-21
4.0653e-21
1.16641e-21
2.82224e-21
3.02676e-21
1.02903e-21
2.30834e-21
8.1785e-22
5.27831e-21
2.18265e-21
5.76864e-21
5.56622e-21
3.37418e-21
1.26866e-23
2.84782e-21
2.94492e-21
2.2118e-21
5.23045e-21
7.60412e-21
6.50603e-22
1.87422e-21
9.00702e-21
4.6725e-23
3.45567e-22
5.1115e-21
1.26938e-22
7.70278e-21
5.83513e-21
1.00013e-20
5.2135e-21
1.98718e-21
5.44647e-21
8.13175e-22
7.6934e-21
3.85201e-21
3.4968e-22
2.52873e-21
4.17417e-21
7.18009e-21
3.9788e-22
3.40235e-21
1.34429e-22
1.68053e-21
3.99033e-21
5.80972e-21
1.78074e-22
2.17786e-21
1.4205e-20
8.19141e-21
1.69225e-21
1.79086e-21
5.73877e-21
4.70207e-21
1.90076e-21
3.96556e-21
6.0255e-21
7.00382e-21
7.06191e-21
7.14356e-22
2.9693e-21
1.47351e-21
8.62928e-21
1.20543e-21
1.48397e-20
3.29702e-21
7.00359e-21
4.56062e-21
1.53294e-21
1.11747e-20
5.22421e-22
2.95508e-21
7.0936e-21
3.34451e-21
8.08691e-21
1.68278e-21
6.86881e-21
2.92097e-21
2.31321e-21
1.78357e-20
1.68126e-21
6.8112e-21
4.74519e-21
5.94e-22
8.12138e-21
9.56598e-22
7.38833e-21
1.1871e-20
5.64649e-21
1.12689e-21
3.66938e-22
3.55178e-21
2.04655e-20
1.26998e-20
1.59103e-21
7.32741e-21
4.76046e-22
4.09843e-21
8.4633e-21
9.41748e-21
1.5391e-22
4.36866e-21
8.0869e-22
4.42022e-21
1.78018e-20
1.15032e-20
2.98281e-21
1.89452e-20
9.83569e-21
1.62127e-21
3.6828e-21
4.59611e-21
1.09732e-20
5.16944e-21
1.5617e-22
1.28119e-21
1.39895e-21
4.46212e-21
9.63745e-21
1.63291e-20
3.09021e-21
8.79109e-21
6.85546e-21
3.84776e-21
1.42735e-22
1.24466e-21
4.02302e-21
2.66558e-21
5.19348e-21
5.86404e-23
8.68368e-22
2.62717e-22
1.32727e-21
3.47565e-21
3.67439e-21
5.04005e-21
3.22418e-21
1.86947e-21
5.52426e-21
7.00165e-21
7.19933e-21
5.5058e-21
1.62004e-21
5.55639e-22
8.35433e-21
3.09446e-21
1.09767e-20
1.049e-20
2.36362e-21
8.9687e-21
6.88893e-21
9.29985e-22
2.46296e-21
1.59297e-21
4.26233e-21
6.01864e-21
3.1379e-21
9.12848e-21
2.78068e-21
3.25556e-21
7.28721e-21
3.41531e-22
5.91811e-21
1.75028e-21
2.4165e-21
1.44891e-20
3.19129e-21
1.57219e-20
4.07597e-21
8.7442e-22
7.02589e-22
6.93961e-25
1.45761e-21
1.30574e-20
1.52416e-21
3.28677e-22
1.65117e-21
4.10681e-22
1.01679e-22
2.39347e-21
3.46522e-21
8.29283e-21
1.24977e-21
3.59098e-21
1.10512e-20
4.5964e-21
4.60159e-21
9.21375e-22
1.36309e-21
7.42363e-22
9.43073e-21
2.72535e-22
1.82995e-21
4.74057e-21
5.42741e-22
5.49632e-21
2.0468e-21
6.78336e-21
1.80319e-21
4.47093e-21
1.59317e-21
8.6988e-22
7.60535e-21
9.00959e-21
3.03808e-21
3.00975e-21
1.22195e-20
4.91822e-21
7.76758e-21
1.07588e-20
5.31178e-21
4.33082e-21
1.0155e-20
3.10914e-21
5.05317e-21
1.28719e-20
4.44676e-22
9.59177e-21
3.10763e-21
4.67222e-21
2.61803e-22
2.50976e-21
1.06925e-22
5.37168e-21
3.58471e-21
3.61989e-22
8.88341e-21
2.92133e-21
5.48388e-21
3.00722e-21
1.43729e-21
4.03214e-22
3.38765e-21
1.28038e-21
4.76378e-21
7.1558e-21
8.52493e-22
4.13617e-21
1.28759e-20
5.52691e-21
2.296e-21
1.26343e-21
1.03442e-20
1.04609e-21
2.64732e-21
1.97005e-20
5.5181e-21
2.07816e-21
1.46717e-20
1.81967e-23
2.53628e-21
2.82019e-21
2.40565e-21
3.84768e-21
2.15616e-21
1.72351e-21
5.60908e-23
2.22699e-21
8.40648e-22
7.62074e-21
1.47647e-20
3.71666e-21
4.47801e-21
2.06276e-21
4.04036e-21
6.66498e-21
1.3376e-21
4.36235e-22
4.97238e-21
6.97657e-21
5.66977e-21
2.22414e-21
9.19232e-21
6.14179e-21
2.88873e-21
2.46849e-21
9.38693e-21
1.34583e-21
5.8081e-21
1.70147e-21
1.76272e-21
8.0422e-22
3.2147e-21
1.17799e-21
2.60935e-23
9.53408e-22
1.38495e-21
5.45563e-22
5.46544e-21
2.61308e-21
3.58822e-21
8.43055e-22
6.89121e-21
1.55795e-22
5.15158e-21
1.10419e-20
1.19184e-20
1.0274e-20
3.57323e-22
1.02838e-20
7.79034e-21
8.63239e-21
1.10238e-21
1.00536e-21
5.87776e-22
1.23648e-21
6.69761e-21
8.31536e-21
4.31016e-21
1.45887e-21
1.49522e-21
7.64844e-21
1.76676e-21
5.53126e-22
3.37363e-21
3.30012e-21
1.15053e-20
8.54294e-21
6.95464e-21
8.38639e-21
7.00646e-21
3.53394e-21
4.26291e-21
6.33855e-21
4.60682e-22
1.57267e-20
3.54833e-23
3.9092e-23
5.36234e-22
7.9975e-21
1.46935e-20
5.43825e-21
7.66073e-22
4.22679e-21
2.4188e-22
1.2404e-21
3.32866e-21
3.79801e-21
9.7176e-22
1.14499e-22
6.77616e-21
5.57799e-23
4.44565e-21
9.38636e-22
3.23294e-21
5.25653e-21
6.35095e-21
5.68856e-21
7.89725e-22
1.85126e-21
1.50527e-21
9.09485e-21
1.62889e-21
1.5585e-21
1.94122e-20
1.71961e-21
3.61233e-21
3.17142e-21
7.01032e-21
8.52955e-21
3.33969e-21
1.21368e-20
6.93241e-21
6.39842e-22
2.44368e-21
3.48328e-21
2.0386e-22
6.18443e-21
2.86117e-22
3.01225e-21
5.08981e-21
2.44224e-21
1.06578e-22
1.08156e-20
4.47525e-21
6.02407e-22
1.55455e-21
9.3172e-24
1.60078e-21
8.93863e-21
2.87344e-21
5.27453e-21
2.10224e-21
3.93081e-21
5.58931e-21
1.88856e-20
2.64342e-21
1.49371e-21
7.8647e-21
6.37648e-21
2.40003e-21
3.91813e-21
2.05272e-21
3.70439e-21
1.60418e-21
1.95503e-21
9.34247e-21
1.56763e-22
8.02586e-22
2.59796e-21
2.57324e-21
7.4528e-21
4.94064e-21
8.57944e-22
3.42779e-21
2.28346e-21
9.33754e-21
3.17285e-22
1.492e-21
2.18781e-21
8.97729e-22
3.52815e-21
5.91509e-21
2.91346e-21
1.93036e-21
8.3762e-22
6.62169e-21
5.563e-21
6.31801e-21
1.90492e-21
1.39641e-20
4.68064e-21
4.06866e-21
6.51437e-22
4.23658e-21
3.66177e-21
7.96258e-21
1.82292e-21
1.25301e-20
7.47584e-21
1.00838e-24
1.96513e-21
1.00423e-20
2.33962e-21
1.36061e-21
7.46498e-21
7.43306e-21
2.38418e-21
1.12439e-20
1.04091e-22
2.08435e-21
1.47089e-21
7.6271e-21
1.06142e-21
3.42504e-21
4.29114e-21
9.42644e-22
2.3133e-21
1.00507e-21
4.01953e-22
2.33565e-21
3.63225e-21
1.48132e-21
9.63522e-21
4.0751e-21
1.98421e-21
5.65888e-22
3.27157e-21
1.69154e-21
1.31614e-20
6.43197e-21
6.13639e-21
6.09781e-21
1.32857e-20
4.02145e-21
2.36566e-22
1.93986e-20
2.95243e-22
7.04067e-21
2.65992e-21
1.87527e-21
1.21731e-21
1.73162e-21
1.93439e-21
2.87385e-21
1.18537e-21
4.84597e-21
6.07396e-21
8.11033e-22
2.53472e-21
2.96718e-21
3.49792e-21
3.49818e-21
2.90593e-21
5.73498e-21
1.50662e-20
5.97885e-21
5.57493e-21
7.87225e-22
1.04555e-21
1.82467e-22
4.63001e-21
3.33523e-22
1.08096e-20
3.32252e-22
2.80463e-21
1.14257e-21
5.3352e-21
2.51006e-21
1.05823e-21
1.59615e-21
1.78839e-21
2.26654e-22
7.18553e-21
8.5371e-22
1.01588e-21
1.52494e-21
3.62277e-23
1.79554e-21
4.04138e-21
3.96005e-21
6.87235e-21
8.2913e-21
2.60156e-22
9.77778e-22
5.70273e-21
1.11227e-21
7.83346e-22
9.26013e-22
2.50382e-21
3.16618e-21
5.68373e-21
5.88409e-21
5.44072e-21
3.30364e-21
4.10317e-21
3.22813e-21
1.69306e-21
4.77797e-21
1.87542e-21
4.48718e-21
1.30395e-21
3.85623e-21
3.91867e-21
2.46181e-21
1.46014e-21
6.35808e-21
7.09999e-22
4.10551e-22
3.64242e-21
1.35657e-21
2.2767e-22
5.68237e-21
2.10613e-21
6.4697e-21
4.53052e-21
1.57943e-20
3.92029e-21
3.1432e-21
2.94215e-21
1.17908e-21
7.11592e-21
3.73635e-21
3.89255e-21
8.58354e-21
5.3938e-21
7.43518e-22
7.7956e-22
1.17184e-20
4.63985e-21
4.42412e-21
5.03322e-21
8.4998e-21
4.00787e-21
1.1341e-20
1.4281e-20
2.33345e-21
3.50418e-21
1.238e-20
5.61104e-22
2.2791e-21
4.57983e-21
6.96497e-21
1.2131e-20
2.04057e-21
1.55833e-21
9.28178e-21
7.26355e-22
1.53012e-21
6.65131e-21
7.97126e-21
1.32762e-21
4.07722e-21
1.6413e-21
3.54853e-21
7.94505e-21
1.28649e-21
3.21472e-21
8.16067e-22
2.59402e-21
1.32426e-20
4.70123e-21
1.55462e-21
1.36647e-21
2.15213e-21
8.70486e-22
1.28163e-21
1.94405e-22
2.50843e-21
4.98087e-21
4.36487e-21
3.62472e-21
4.469e-21
9.99563e-22
1.01449e-21
3.62637e-21
3.589e-21
9.28345e-21
2.38894e-21
4.75813e-22
2.61176e-21
3.50172e-22
7.67135e-21
1.02326e-21
5.09021e-21
1.61371e-21
1.13446e-21
6.06459e-21
2.42939e-21
4.44606e-21
4.57898e-21
1.44716e-21
2.05262e-21
2.78153e-21
3.08091e-21
1.05729e-21
2.50407e-21
5.15246e-21
5.77898e-22
6.95679e-22
2.27046e-21
5.11414e-22
1.56538e-22