/*--------------------------------*- C++ -*----------------------------------*\
  =========                 |
  \\      /  F ield         | OpenFOAM: The Open Source CFD Toolbox
   \\    /   O peration     | Website:  https://openfoam.org
    \\  /    A nd           | Version:  7
     \\/     M anipulation  |
\*---------------------------------------------------------------------------*/
FoamFile
{
    version     2.0;
    format      ascii;
    class       Cloud<passiveParticle>;
    location    "0/lagrangian/dsmc";
    object      positions;
}
// * * * * * * * * * * * * * * * * * * * * * * * * * * * * * * * * * * * * * //

9216
(
(0.351549 0.45882 0.121157 0.0684741) 0 0 1
(0.663624 0.1611 0.0901631 0.0851127) 0 0 1
(0.137852 0.322755 0.245002 0.294391) 0 0 1
(0.129804 0.107973 0.293904 0.468319) 0 0 1
(0.0528987 0.83924 0.0102262 0.0976346) 0 0 1
(0.105412 0.16488 0.177253 0.552456) 0 0 1
(0.256996 0.153989 0.576962 0.012053) 0 0 2
(0.212962 0.225494 0.187949 0.373595) 0 0 2
(0.0512783 0.179616 0.374861 0.394245) 0 0 2
(0.468895 0.0848516 0.350634 0.0956192) 0 0 2
(0.159131 0.00619871 0.0243736 0.810296) 0 0 2
(0.0118577 0.423192 0.0693798 0.49557) 0 0 2
(0.0865652 0.14599 0.0497767 0.717668) 0 124 1
(0.0223514 0.00797538 0.273801 0.695872) 0 124 1
(0.0905727 0.450888 0.367877 0.0906626) 0 124 1
(0.270201 0.167851 0.13739 0.424558) 0 124 1
(0.0748442 0.0633463 0.170289 0.691521) 0 124 1
(0.324215 0.090843 0.519535 0.0654073) 0 124 1
(0.19095 0.31346 0.391638 0.103952) 0 124 2
(0.149812 0.785646 0.0645344 7.5344e-06) 0 124 2
(0.0790164 0.533514 0.196329 0.191141) 0 124 2
(0.193452 0.418929 0.138918 0.248701) 0 124 2
(0.0248256 0.25412 0.254177 0.466877) 0 124 2
(0.18068 0.485625 0.13124 0.202455) 0 124 2
(0.20284 0.0669596 0.724964 0.00523601) 0 249 1
(0.581977 0.135677 0.20457 0.0777755) 0 249 1
(0.127156 0.385089 0.306999 0.180756) 0 249 1
(0.357641 0.0562741 0.286962 0.299124) 0 249 1
(0.0267215 0.136095 0.343699 0.493485) 0 249 1
(0.190076 0.448746 0.254874 0.106304) 0 249 1
(0.127988 0.425706 0.418578 0.0277292) 0 249 2
(0.182773 0.0661283 0.0986486 0.65245) 0 249 2
(0.440721 0.294344 0.191284 0.0736508) 0 249 2
(0.00100933 0.796669 0.0908859 0.111436) 0 249 2
(0.724343 0.00213983 0.251701 0.021816) 0 249 2
(0.000314896 0.168113 0.501687 0.329886) 0 249 2
(0.0739597 0.705067 0.00298775 0.217986) 0 374 1
(0.403197 0.169788 0.273914 0.153101) 0 374 1
(0.452057 0.469167 0.044667 0.034109) 0 374 1
(0.286021 0.154255 0.081017 0.478708) 0 374 1
(0.375002 0.452415 0.147594 0.024989) 0 374 1
(0.236617 0.0614833 0.0123159 0.689584) 0 374 1
(0.188709 0.0220654 0.595244 0.193982) 0 374 2
(0.0398823 0.452252 0.429166 0.0786999) 0 374 2
(0.252476 0.0245657 0.705935 0.0170232) 0 374 2
(0.113449 0.06936 0.63678 0.180411) 0 374 2
(0.119943 0.441576 0.204589 0.233892) 0 374 2
(0.106058 0.376927 0.103047 0.413969) 0 374 2
(0.391644 0.0405193 0.131083 0.436754) 0 499 1
(0.196462 0.776488 3.40026e-06 0.0270466) 0 499 1
(0.208108 0.415125 0.144776 0.231991) 0 499 1
(0.0805194 0.761228 0.00633223 0.15192) 0 499 1
(0.636665 0.0595255 0.169041 0.134768) 0 499 1
(0.184245 0.435966 0.268021 0.111767) 0 499 1
(0.052025 0.0967379 0.209077 0.64216) 0 499 2
(0.352714 0.388229 0.0131841 0.245872) 0 499 2
(0.192312 0.0924494 0.615104 0.100135) 0 499 2
(0.332951 0.45552 0.084474 0.127055) 0 499 2
(0.251517 0.00806567 0.265268 0.475149) 0 499 2
(0.363159 0.591772 0.00418227 0.0408864) 0 499 2
(0.230522 0.240005 0.453121 0.0763522) 0 624 2
(0.0794941 0.404156 0.0810061 0.435344) 0 624 2
(0.399157 0.238898 0.338791 0.0231542) 0 624 2
(0.344898 0.2064 0.128539 0.320163) 0 624 2
(0.14328 0.0730711 0.764973 0.0186758) 0 624 2
(0.525079 0.256222 0.110872 0.107828) 0 624 2
(0.123299 0.468503 0.266663 0.141535) 0 624 1
(0.269676 0.198902 0.362712 0.168711) 0 624 1
(0.118412 0.131721 0.1605 0.589367) 0 624 1
(0.407983 0.199419 0.315307 0.0772907) 0 624 1
(0.0722581 0.623342 0.121698 0.182701) 0 624 1
(0.225576 0.0570899 0.507603 0.209732) 0 624 1
(0.0355361 0.425662 0.272284 0.266518) 0 624 1
(0.261286 0.022091 0.439955 0.276667) 1 1 1
(0.0951908 0.157615 0.0452729 0.701921) 1 1 1
(0.480954 0.153334 0.292296 0.0734162) 1 1 1
(0.249074 0.307302 0.223414 0.22021) 1 1 1
(0.507593 0.107151 0.252801 0.132454) 1 1 1
(0.37339 0.0762964 0.0532227 0.49709) 1 1 1
(0.122965 0.504624 0.0894298 0.282981) 1 1 2
(0.0860499 0.475105 0.270602 0.168243) 1 1 2
(0.31797 0.0339127 0.322787 0.32533) 1 1 2
(0.101146 0.103831 0.49291 0.302114) 1 1 2
(0.144566 0.321058 0.234949 0.299427) 1 1 2
(0.285922 0.342844 0.0911294 0.280104) 1 1 2
(0.387693 0.297786 0.040057 0.274465) 1 125 1
(0.102514 0.11621 0.39333 0.387946) 1 125 1
(0.244247 0.510053 0.0196016 0.226099) 1 125 1
(0.0196569 0.61423 0.318612 0.0475019) 1 125 1
(0.405091 0.146833 0.382092 0.0659839) 1 125 1
(0.0515891 0.376294 0.375862 0.196254) 1 125 1
(0.248737 0.00900754 0.238078 0.504177) 1 125 2
(0.651669 0.0835543 0.230913 0.0338634) 1 125 2
(0.125544 0.484327 0.249053 0.141076) 1 125 2
(0.0790259 0.493035 0.260882 0.167058) 1 125 2
(0.279635 0.533529 0.0907259 0.0961094) 1 125 2
(0.717721 0.10118 0.126279 0.0548192) 1 125 2
(0.367007 0.0712712 0.311035 0.250687) 1 125 2
(0.314827 0.00939202 0.0438451 0.631936) 1 250 1
(0.00699975 0.0667771 0.221851 0.704373) 1 250 1
(0.282679 0.33124 0.00220798 0.383874) 1 250 1
(0.468896 0.100529 0.144703 0.285873) 1 250 1
(0.39432 0.0560919 0.540935 0.00865362) 1 250 1
(0.664948 0.11608 0.0971344 0.121837) 1 250 1
(0.039811 0.156725 0.616691 0.186773) 1 250 2
(0.255006 0.0767025 0.147488 0.520803) 1 250 2
(0.0781766 0.261171 0.504911 0.155742) 1 250 2
(0.204851 0.141146 0.277544 0.376459) 1 250 2
(0.28865 0.242385 0.466517 0.00244859) 1 250 2
(0.113971 0.0885814 0.342615 0.454832) 1 250 2
(0.20594 0.448756 0.345269 3.51886e-05) 1 375 1
(0.438731 0.102544 0.19571 0.263015) 1 375 1
(0.17281 0.538305 0.0712817 0.217603) 1 375 1
(0.300649 0.142691 0.280093 0.276567) 1 375 1
(0.189364 0.535202 0.24207 0.0333645) 1 375 1
(0.788423 0.00458934 0.071896 0.135092) 1 375 1
(0.059917 0.588711 0.23451 0.116862) 1 375 2
(0.174277 0.683401 0.0802589 0.0620632) 1 375 2
(0.134657 0.221908 0.373463 0.269972) 1 375 2
(0.4107 0.363702 0.0819365 0.143661) 1 375 2
(0.27304 0.025143 0.116494 0.585323) 1 375 2
(0.487281 0.045415 0.433679 0.0336244) 1 375 2
(0.078466 0.337877 0.517436 0.066221) 1 500 1
(0.410447 0.108032 0.0689693 0.412552) 1 500 1
(0.0593849 0.452158 0.124176 0.364281) 1 500 1
(0.0701241 0.111213 0.570607 0.248056) 1 500 1
(0.102941 0.278072 0.272652 0.346334) 1 500 1
(0.1483 0.578425 0.103548 0.169727) 1 500 1
(0.199222 0.18408 0.186172 0.430526) 1 500 2
(0.343536 0.617988 0.000760993 0.0377155) 1 500 2
(0.157113 0.223683 0.377268 0.241936) 1 500 2
(0.0976817 0.619693 0.0290426 0.253583) 1 500 2
(0.407474 0.0309031 0.157951 0.403672) 1 500 2
(0.0465821 0.40987 0.498792 0.0447566) 1 500 2
(0.149484 0.135638 0.218871 0.496008) 1 0 1
(0.209645 0.0374633 0.248785 0.504107) 1 0 1
(0.145697 0.00854188 0.756679 0.0890823) 1 0 1
(0.0372089 0.00376908 0.27228 0.686742) 1 0 1
(0.531928 0.24637 0.177808 0.0438942) 1 0 1
(0.417838 0.0333704 0.308052 0.24074) 1 0 1
(0.0646286 0.289099 0.0123487 0.633924) 1 0 2
(0.0491752 0.565653 0.0661778 0.318994) 1 0 2
(0.411272 0.28022 0.291566 0.0169414) 1 0 2
(0.0490299 0.168725 0.768914 0.0133309) 1 0 2
(0.213069 0.0555323 0.303697 0.427702) 1 0 2
(0.23559 0.100512 0.232485 0.431414) 1 0 2
(0.198046 0.353181 0.14561 0.303163) 2 2 1
(0.280327 0.130015 0.479093 0.110565) 2 2 1
(0.13056 0.0669099 0.190304 0.612226) 2 2 1
(0.254276 0.168212 0.160711 0.416801) 2 2 1
(0.670962 0.12628 0.0272459 0.175512) 2 2 1
(0.417084 0.256496 0.0403176 0.286103) 2 2 1
(0.160434 0.40386 0.177772 0.257934) 2 2 2
(0.616582 0.212641 0.155138 0.015639) 2 2 2
(0.0779677 0.00641957 0.522174 0.393439) 2 2 2
(0.0471473 0.0890791 0.51391 0.349864) 2 2 2
(0.0734097 0.177183 0.530942 0.218466) 2 2 2
(0.0756682 0.212686 0.206608 0.505038) 2 2 2
(0.194132 0.213436 0.455712 0.13672) 2 126 1
(0.0422516 0.331331 0.2245 0.401917) 2 126 1
(0.183891 0.452348 0.353661 0.0100999) 2 126 1
(0.686527 0.0909986 0.0221267 0.200348) 2 126 1
(0.832323 0.0507322 0.0263988 0.0905459) 2 126 1
(0.153795 0.0220824 0.491857 0.332265) 2 126 1
(0.452574 0.426616 0.0585595 0.0622506) 2 126 2
(0.244042 0.157887 0.567639 0.0304323) 2 126 2
(0.269294 0.251001 0.0320639 0.447641) 2 126 2
(0.106957 0.519336 0.00331792 0.370389) 2 126 2
(0.407189 0.0364758 0.463015 0.0933201) 2 126 2
(0.126809 0.236049 0.619758 0.0173842) 2 126 2
(0.414753 0.417238 0.128366 0.0396434) 2 126 2
(0.501757 0.0651738 0.194766 0.238303) 2 251 1
(0.339341 0.630576 0.0184449 0.0116373) 2 251 1
(0.158476 0.436546 0.141336 0.263642) 2 251 1
(0.241722 0.403607 0.243175 0.111495) 2 251 1
(0.347135 0.00348973 0.406511 0.242863) 2 251 1
(0.292303 0.293606 0.152387 0.261704) 2 251 1
(0.413107 0.0215125 0.0963197 0.469061) 2 251 2
(0.310269 0.233007 0.245752 0.210972) 2 251 2
(0.686351 0.0109323 0.273795 0.0289209) 2 251 2
(0.391586 0.307188 0.133827 0.167399) 2 251 2
(0.00238436 0.409515 0.408433 0.179667) 2 251 2
(0.288179 0.0215977 0.0860535 0.60417) 2 251 2
(0.213224 0.186905 0.291181 0.30869) 2 376 1
(0.185433 0.00987737 0.0590247 0.745665) 2 376 1
(0.0520271 0.347311 0.420868 0.179793) 2 376 1
(0.544883 0.214827 0.0271154 0.213175) 2 376 1
(0.308889 0.0569726 0.220943 0.413195) 2 376 1
(0.0171294 0.414841 0.260543 0.307486) 2 376 1
(0.0518521 0.105158 0.79881 0.0441799) 2 376 2
(0.675652 0.0444521 0.247143 0.0327531) 2 376 2
(0.0377929 0.491219 0.10201 0.368978) 2 376 2
(0.426136 0.0472524 0.352338 0.174275) 2 376 2
(0.00826491 0.0243705 0.493997 0.473368) 2 376 2
(0.223127 0.0963104 0.281918 0.398645) 2 376 2
(0.0121018 0.672589 0.116857 0.198452) 2 501 1
(0.0146614 0.339739 0.563399 0.0822011) 2 501 1
(0.0929563 0.223976 0.278182 0.404886) 2 501 1
(0.170059 0.335106 0.425657 0.0691776) 2 501 1
(0.293781 0.387477 0.215747 0.102995) 2 501 1
(0.121593 0.00447565 0.310367 0.563565) 2 501 1
(0.101309 0.0255455 0.00570415 0.867441) 2 501 2
(0.22746 0.483821 0.138326 0.150393) 2 501 2
(0.0857027 0.178762 0.0927492 0.642786) 2 501 2
(0.467079 0.269725 0.166282 0.0969135) 2 501 2
(0.138637 0.307112 0.241061 0.313189) 2 501 2
(0.0892588 0.390986 0.23378 0.285975) 2 501 2
(0.360675 0.316672 0.0536111 0.269042) 2 1 1
(0.230212 0.429142 0.197327 0.143318) 2 1 1
(0.0322362 0.145772 0.386659 0.435333) 2 1 1
(0.300412 0.351044 0.245042 0.103502) 2 1 1
(0.671496 0.145588 0.0154234 0.167492) 2 1 1
(0.346699 0.100477 0.436789 0.116034) 2 1 1
(0.413074 0.0820469 0.211093 0.293786) 2 1 2
(0.0358819 0.522004 0.165733 0.276381) 2 1 2
(0.139267 0.448799 0.0767747 0.33516) 2 1 2
(0.358757 0.302848 0.252637 0.0857587) 2 1 2
(0.0587256 0.209741 0.375932 0.355602) 2 1 2
(0.279044 0.122104 0.0636283 0.535223) 2 1 2
(0.017676 0.0682061 0.757592 0.156526) 3 3 1
(0.0128217 0.38718 0.0676139 0.532385) 3 3 1
(0.799972 0.0514871 0.041128 0.107412) 3 3 1
(0.501381 0.101252 0.297782 0.0995841) 3 3 1
(0.200884 0.142071 0.43333 0.223715) 3 3 1
(0.171639 0.144979 0.262918 0.420464) 3 3 1
(0.401025 0.0747272 0.12519 0.399058) 3 3 2
(0.265985 0.132999 0.256008 0.345008) 3 3 2
(0.436066 0.0765858 0.281797 0.205551) 3 3 2
(0.278327 0.193219 0.0719039 0.45655) 3 3 2
(0.0119513 0.30714 0.589324 0.0915839) 3 3 2
(0.366361 0.163452 0.054783 0.415404) 3 3 2
(0.284859 0.16515 0.418809 0.131182) 3 3 2
(0.13293 0.244479 0.00512937 0.617462) 3 127 1
(0.0259001 0.313895 0.169951 0.490254) 3 127 1
(0.392469 0.0165379 0.263619 0.327375) 3 127 1
(0.151861 0.123823 0.153935 0.570381) 3 127 1
(0.612844 0.101728 0.199783 0.0856454) 3 127 1
(0.132973 0.787192 0.0398365 0.0399986) 3 127 1
(0.464573 0.161981 0.301593 0.0718521) 3 127 2
(0.485665 0.0950013 0.410251 0.00908252) 3 127 2
(0.292771 0.218957 0.319752 0.16852) 3 127 2
(0.106258 0.0351169 0.17764 0.680985) 3 127 2
(0.152962 0.157862 0.611406 0.0777704) 3 127 2
(0.0378322 0.0607956 0.294152 0.607221) 3 127 2
(0.0799391 0.0329061 0.831075 0.0560801) 3 252 1
(0.12082 0.231425 0.519883 0.127872) 3 252 1
(0.347437 0.0180502 0.366297 0.268216) 3 252 1
(0.31519 0.2627 0.367342 0.0547683) 3 252 1
(0.0730724 0.0525329 0.764433 0.109962) 3 252 1
(0.130712 0.265437 0.316993 0.286859) 3 252 1
(0.00284193 0.245757 0.398398 0.353003) 3 252 2
(0.100706 0.144365 0.701333 0.0535961) 3 252 2
(0.121496 0.543256 0.251766 0.0834821) 3 252 2
(0.524126 0.0962433 0.233969 0.145662) 3 252 2
(0.295781 0.130261 0.0482755 0.525683) 3 252 2
(0.00429744 0.2305 0.303128 0.462075) 3 252 2
(0.442238 0.350241 0.0987184 0.108802) 3 377 1
(0.0412189 0.107426 0.458678 0.392677) 3 377 1
(0.085877 0.344095 0.0278747 0.542153) 3 377 1
(0.0128501 0.0784231 0.442166 0.466561) 3 377 1
(0.750769 0.200313 0.0143151 0.034603) 3 377 1
(0.531284 0.224087 0.115739 0.12889) 3 377 1
(0.131029 0.446875 0.323783 0.0983131) 3 377 2
(0.0676621 0.451423 0.445645 0.0352704) 3 377 2
(0.108418 0.0583979 0.028833 0.804351) 3 377 2
(0.161633 0.0882783 0.249418 0.500671) 3 377 2
(0.324983 0.294271 0.104468 0.276278) 3 377 2
(0.052892 0.364189 0.45928 0.12364) 3 377 2
(0.224117 0.0444472 0.161123 0.570313) 3 502 1
(0.402687 0.0610972 0.0581668 0.478049) 3 502 1
(0.000538882 0.184896 0.421435 0.39313) 3 502 1
(0.168208 0.462022 0.0685149 0.301255) 3 502 1
(0.155933 0.391792 0.132649 0.319626) 3 502 1
(0.124356 0.518398 0.290738 0.066508) 3 502 1
(0.368321 0.19836 0.0509805 0.382339) 3 502 2
(0.217891 0.289248 0.33644 0.156421) 3 502 2
(0.494407 0.0134927 0.307001 0.185099) 3 502 2
(0.200838 0.14841 0.376257 0.274496) 3 502 2
(0.250852 0.40444 0.00191004 0.342798) 3 502 2
(0.0122175 0.278515 0.560664 0.148603) 3 502 2
(0.16983 0.0558399 0.312721 0.461609) 3 2 1
(0.247721 0.43448 0.144687 0.173112) 3 2 1
(0.0132741 0.555231 0.311066 0.120429) 3 2 1
(0.201922 0.401653 0.308788 0.0876365) 3 2 1
(0.248751 0.406853 0.139811 0.204585) 3 2 1
(0.0394388 0.195875 0.746955 0.0177313) 3 2 1
(0.132661 0.579823 0.26454 0.0229765) 3 2 2
(0.372614 0.366586 0.138282 0.122518) 3 2 2
(0.491989 0.393538 0.103359 0.0111143) 3 2 2
(0.268795 0.350549 0.0263091 0.354346) 3 2 2
(0.25329 0.431541 0.157967 0.157202) 3 2 2
(0.0486489 0.772081 0.0129714 0.166299) 3 2 2
(0.119661 0.3873 0.248477 0.244562) 4 4 1
(0.30709 0.287052 0.203095 0.202762) 4 4 1
(0.0133623 0.15583 0.700957 0.12985) 4 4 1
(0.0139958 0.108009 0.799167 0.078828) 4 4 1
(0.0290641 0.596256 0.270948 0.103732) 4 4 1
(0.287974 0.551513 0.103255 0.0572578) 4 4 1
(0.388521 0.106431 0.308642 0.196406) 4 4 2
(0.114607 0.422514 0.274701 0.188179) 4 4 2
(0.205476 0.252386 0.0986579 0.44348) 4 4 2
(0.0125464 0.255093 0.678694 0.0536666) 4 4 2
(0.106507 0.540126 0.163216 0.190151) 4 4 2
(0.0883713 0.576723 0.04006 0.294846) 4 4 2
(0.35312 0.0763576 0.0759879 0.494534) 4 128 1
(0.6258 0.04735 0.0417273 0.285123) 4 128 1
(0.418469 0.0948282 0.0787975 0.407906) 4 128 1
(0.155237 0.279426 0.434808 0.130529) 4 128 1
(0.135875 0.0477893 0.619974 0.196362) 4 128 1
(0.108435 0.505107 0.154982 0.231476) 4 128 1
(0.515715 0.233667 0.0126518 0.237966) 4 128 2
(0.397089 0.129581 0.380787 0.0925431) 4 128 2
(0.285033 0.0026276 0.113385 0.598955) 4 128 2
(0.411518 0.0933788 0.253209 0.241894) 4 128 2
(0.0789433 0.0221307 0.561818 0.337108) 4 128 2
(0.522782 0.19447 0.159026 0.123722) 4 128 2
(0.336592 0.097745 0.270361 0.295302) 4 253 1
(0.00510636 0.0654525 0.556209 0.373233) 4 253 1
(0.0534903 0.848638 0.0410155 0.0568565) 4 253 1
(0.854321 0.0341464 0.0281534 0.083379) 4 253 1
(0.413512 0.0806364 0.298993 0.206859) 4 253 1
(0.00291942 0.275019 0.231023 0.491038) 4 253 1
(0.0378253 0.00196756 0.237239 0.722968) 4 253 2
(0.180864 0.146768 0.341073 0.331295) 4 253 2
(0.237798 0.0282289 0.0864318 0.647542) 4 253 2
(0.119682 0.549945 0.172127 0.158247) 4 253 2
(0.0655448 0.709914 0.0634829 0.161058) 4 253 2
(0.0928791 0.153446 0.621653 0.132021) 4 253 2
(0.453349 0.368026 0.0600283 0.118597) 4 378 1
(0.234566 0.0682473 0.595476 0.10171) 4 378 1
(0.744349 0.0266101 0.106961 0.12208) 4 378 1
(0.27603 0.212598 0.239485 0.271887) 4 378 1
(0.0308857 0.12237 0.296146 0.550598) 4 378 1
(0.36074 0.209456 0.337309 0.0924946) 4 378 1
(0.324609 0.191948 0.0336039 0.44984) 4 378 2
(0.420181 0.27574 0.0134898 0.290589) 4 378 2
(0.15777 0.43638 0.263845 0.142005) 4 378 2
(0.290449 0.587818 0.00255755 0.119176) 4 378 2
(0.464686 0.162417 0.123392 0.249505) 4 378 2
(0.229943 0.161431 0.186878 0.421747) 4 378 2
(0.537153 0.178966 0.137095 0.146787) 4 503 1
(0.0940097 0.39824 0.319582 0.188168) 4 503 1
(0.516441 0.194159 0.249543 0.0398563) 4 503 1
(0.159673 0.0190173 0.321072 0.500238) 4 503 1
(0.0186642 0.536202 0.305102 0.140032) 4 503 1
(0.174848 0.300078 0.49823 0.0268438) 4 503 1
(0.548517 0.0617458 0.00953752 0.3802) 4 503 2
(0.154668 0.336983 0.0917992 0.41655) 4 503 2
(0.0897924 0.389588 0.258246 0.262374) 4 503 2
(0.0756383 0.189814 0.471953 0.262594) 4 503 2
(0.347502 0.202358 0.259681 0.19046) 4 503 2
(0.0497288 0.232954 0.572054 0.145263) 4 503 2
(0.0372522 0.326256 0.32484 0.311652) 4 3 1
(0.470861 0.426978 0.01774 0.0844205) 4 3 1
(0.408713 0.0573319 0.345215 0.18874) 4 3 1
(0.315104 0.128312 0.0851682 0.471416) 4 3 1
(0.015143 0.0924936 0.350157 0.542207) 4 3 1
(0.333777 0.107775 0.235886 0.322561) 4 3 1
(0.30116 0.184895 0.350737 0.163207) 4 3 1
(0.653284 0.260344 0.0475147 0.0388571) 4 3 2
(0.407207 0.278662 0.0143418 0.299789) 4 3 2
(0.149456 0.404624 0.0772617 0.368659) 4 3 2
(0.432766 0.126521 0.0760795 0.364634) 4 3 2
(0.36211 0.159654 0.44042 0.0378165) 4 3 2
(0.183697 0.521843 0.212471 0.0819885) 4 3 2
(0.306024 0.310558 0.362139 0.0212788) 5 5 1
(0.0320811 0.567301 0.392487 0.00813055) 5 5 1
(0.31234 0.261604 0.0975654 0.32849) 5 5 1
(0.53891 0.102421 0.171611 0.187059) 5 5 1
(0.0759202 0.0538334 0.183779 0.686468) 5 5 1
(0.50647 0.116686 0.245354 0.13149) 5 5 1
(0.385974 0.470262 0.0938103 0.0499532) 5 5 2
(0.0947217 0.0106994 0.108065 0.786513) 5 5 2
(0.454735 0.0498396 0.299634 0.195791) 5 5 2
(0.130874 0.269989 0.517343 0.0817944) 5 5 2
(0.264625 0.152933 0.203449 0.378993) 5 5 2
(0.122803 0.26928 0.0557109 0.552206) 5 5 2
(0.0930075 0.696352 0.00705503 0.203585) 5 129 1
(0.0404197 0.432181 0.178366 0.349033) 5 129 1
(0.31943 0.431934 0.130692 0.117945) 5 129 1
(0.320518 0.0739188 0.24358 0.361983) 5 129 1
(0.183952 0.484592 0.25066 0.0807957) 5 129 1
(0.480818 0.301598 0.0264511 0.191133) 5 129 1
(0.0995179 0.691958 0.102558 0.105965) 5 129 2
(0.228978 0.47969 0.0154653 0.275866) 5 129 2
(0.0466974 0.318686 0.278593 0.356024) 5 129 2
(0.626917 0.050516 0.20235 0.120217) 5 129 2
(0.264634 0.274806 0.24884 0.211721) 5 129 2
(0.104932 0.235435 0.0158425 0.643791) 5 129 2
(0.0309565 0.0717324 0.367734 0.529577) 5 254 1
(0.391184 0.42459 0.00135266 0.182873) 5 254 1
(0.539761 0.36725 0.0592187 0.0337701) 5 254 1
(0.126428 0.0636312 0.348753 0.461188) 5 254 1
(0.068484 0.0519817 0.318588 0.560946) 5 254 1
(0.111394 0.434144 0.407893 0.0465685) 5 254 1
(0.0319359 0.2574 0.0623957 0.648269) 5 254 2
(0.380481 0.33192 0.266412 0.021187) 5 254 2
(0.721377 0.220786 0.0372445 0.0205922) 5 254 2
(0.119554 0.245241 0.624045 0.0111599) 5 254 2
(0.13946 0.56722 0.0438509 0.24947) 5 254 2
(0.0428853 0.0307318 0.544105 0.382278) 5 254 2
(0.145548 0.103026 0.659115 0.0923101) 5 379 1
(0.0166626 0.493437 0.00103314 0.488867) 5 379 1
(0.423361 0.0683148 0.191388 0.316937) 5 379 1
(0.585144 0.060198 0.147402 0.207257) 5 379 1
(0.117338 0.415002 0.402845 0.0648149) 5 379 1
(0.469353 0.182954 0.00961705 0.338076) 5 379 1
(0.0166742 0.417441 0.0364735 0.529411) 5 379 1
(0.265897 0.124209 0.326017 0.283876) 5 379 2
(0.109653 0.313108 0.327892 0.249347) 5 379 2
(0.264552 0.249102 0.226748 0.259598) 5 379 2
(0.002824 0.0265582 0.949979 0.0206386) 5 379 2
(0.0297966 0.452447 0.394408 0.123348) 5 379 2
(0.197483 0.371811 0.414445 0.0162611) 5 379 2
(0.338976 0.304087 0.111816 0.245122) 5 379 2
(0.074228 0.00716554 0.667734 0.250873) 5 504 1
(0.0148526 0.0833952 0.275961 0.625791) 5 504 1
(0.218179 0.557083 0.157711 0.0670269) 5 504 1
(0.00764774 0.39061 0.414467 0.187275) 5 504 1
(0.080797 0.440233 0.278632 0.200338) 5 504 1
(0.470885 0.276034 0.175614 0.0774669) 5 504 1
(0.796955 0.0228728 0.0877521 0.0924196) 5 504 2
(0.146668 0.116166 0.684825 0.0523408) 5 504 2
(0.13252 0.304966 0.339883 0.222631) 5 504 2
(0.160039 0.0443393 0.522126 0.273495) 5 504 2
(0.272921 0.150399 0.455966 0.120715) 5 504 2
(0.29952 0.237994 0.233889 0.228597) 5 504 2
(0.13492 0.399045 0.292024 0.174012) 5 4 1
(0.102119 0.455682 0.0833781 0.35882) 5 4 1
(0.028249 0.00321808 0.916584 0.0519488) 5 4 1
(0.444395 0.0467395 0.4543 0.0545649) 5 4 1
(0.254442 0.308233 0.288633 0.148693) 5 4 1
(0.0631236 0.430322 0.107541 0.399014) 5 4 1
(0.701312 0.259314 0.0173227 0.0220511) 5 4 2
(0.717225 0.0639907 0.205933 0.0128519) 5 4 2
(0.48363 0.0180312 0.141715 0.356624) 5 4 2
(0.104958 0.688156 0.0204383 0.186448) 5 4 2
(0.0736893 0.527178 0.380565 0.0185683) 5 4 2
(0.325426 0.221787 0.431372 0.0214146) 5 4 2
(0.499029 0.143518 0.236701 0.120752) 6 6 1
(0.258765 0.13259 0.0930308 0.515614) 6 6 1
(0.260809 0.0293963 0.277413 0.432382) 6 6 1
(0.0989803 0.20355 0.116323 0.581146) 6 6 1
(0.304477 0.11172 0.374126 0.209678) 6 6 1
(0.279162 0.310562 0.0406446 0.369632) 6 6 1
(0.339248 0.0922915 0.447129 0.121332) 6 6 2
(0.274724 0.0267876 0.225824 0.472664) 6 6 2
(0.400969 0.25845 0.0791464 0.261434) 6 6 2
(0.137595 0.16443 0.208982 0.488994) 6 6 2
(0.35915 0.0296235 0.108949 0.502278) 6 6 2
(0.690253 0.0318664 0.0136342 0.264246) 6 6 2
(0.397191 0.250888 0.143966 0.207955) 6 130 1
(0.0752947 0.0301168 0.613947 0.280641) 6 130 1
(0.23185 0.125019 0.0188009 0.62433) 6 130 1
(0.557678 0.192398 0.16629 0.0836339) 6 130 1
(0.165459 0.168886 0.566186 0.099469) 6 130 1
(0.0808513 0.276421 0.606157 0.0365706) 6 130 1
(0.182307 0.401316 0.188535 0.227842) 6 130 2
(0.454383 0.18796 0.013191 0.344466) 6 130 2
(0.243917 0.427206 0.246087 0.0827901) 6 130 2
(0.0238259 0.886838 0.0751768 0.0141591) 6 130 2
(0.22299 0.179595 0.594499 0.00291627) 6 130 2
(0.162864 0.0285756 0.734061 0.0744988) 6 130 2
(0.469427 0.22759 0.234258 0.0687254) 6 255 1
(0.27606 0.223594 0.232306 0.26804) 6 255 1
(0.872361 0.0561538 0.0533915 0.0180934) 6 255 1
(0.603884 0.0149815 0.0235499 0.357585) 6 255 1
(0.0807158 0.400624 0.132089 0.386571) 6 255 1
(0.0990455 0.0988965 0.433785 0.368273) 6 255 1
(0.506823 0.0798819 0.184906 0.22839) 6 255 2
(0.0616871 0.47877 0.290263 0.16928) 6 255 2
(0.226648 0.2531 0.260493 0.259759) 6 255 2
(0.179269 0.447171 0.154792 0.218768) 6 255 2
(0.202369 0.716417 0.053569 0.0276445) 6 255 2
(0.381101 0.260024 0.183692 0.175184) 6 255 2
(0.447518 0.249473 0.276453 0.0265553) 6 380 1
(0.0853511 0.220421 0.467479 0.226748) 6 380 1
(0.771464 0.141802 0.0592765 0.0274576) 6 380 1
(0.0917439 0.447766 0.022395 0.438095) 6 380 1
(0.28198 0.0724699 0.307726 0.337824) 6 380 1
(0.477187 0.2892 0.0842639 0.149349) 6 380 1
(0.415275 0.0973354 0.421361 0.0660281) 6 380 1
(0.185149 0.240067 0.398569 0.176215) 6 380 2
(0.545523 0.0959525 0.322802 0.035722) 6 380 2
(0.393216 0.107839 0.387148 0.111797) 6 380 2
(0.27909 0.307733 0.0375304 0.375646) 6 380 2
(0.0210854 0.431716 0.0339937 0.513205) 6 380 2
(0.186494 0.626548 0.0412473 0.14571) 6 380 2
(0.0245996 0.163246 0.143768 0.668386) 6 505 1
(0.0118478 0.521807 0.345079 0.121266) 6 505 1
(0.0777208 0.188573 0.401204 0.332502) 6 505 1
(0.222262 0.415605 0.0522555 0.309878) 6 505 1
(0.0521784 0.361718 0.00712409 0.57898) 6 505 1
(0.0891775 0.189122 0.60572 0.11598) 6 505 1
(0.261207 0.52297 0.136722 0.0791015) 6 505 2
(0.160375 0.482432 0.335151 0.022042) 6 505 2
(0.378749 0.495537 0.0355738 0.0901398) 6 505 2
(0.122887 0.270374 0.59331 0.013429) 6 505 2
(0.25074 0.732132 0.00610377 0.0110244) 6 505 2
(0.926895 0.0434498 0.00101798 0.0286373) 6 505 2
(0.15063 0.287881 0.116139 0.445351) 6 505 2
(0.84776 0.0214646 0.0531135 0.0776621) 6 5 1
(0.37907 0.385905 0.168853 0.0661722) 6 5 1
(0.297243 0.347319 0.240952 0.114486) 6 5 1
(0.212778 0.0320836 0.400182 0.354957) 6 5 1
(0.0555266 0.416415 0.434084 0.0939739) 6 5 1
(0.468219 0.0601058 0.409168 0.0625067) 6 5 1
(0.0659441 0.0506553 0.661331 0.22207) 6 5 2
(0.778046 0.182862 0.0261228 0.0129689) 6 5 2
(0.337176 0.509652 0.145211 0.00796108) 6 5 2
(0.257414 0.302334 0.150455 0.289797) 6 5 2
(0.0918846 0.644958 0.0388293 0.224328) 6 5 2
(0.762731 0.030873 0.136688 0.0697072) 6 5 2
(0.0517345 0.165012 0.769751 0.013503) 7 7 1
(0.178655 0.100107 0.0893786 0.631859) 7 7 1
(0.341648 0.100256 0.313357 0.244739) 7 7 1
(0.518208 0.0771211 0.329997 0.0746746) 7 7 1
(0.410448 0.0955309 0.316656 0.177365) 7 7 1
(0.158212 0.540396 0.200687 0.100705) 7 7 1
(0.413063 0.260588 0.0605162 0.265833) 7 7 2
(0.585668 0.0283514 0.282739 0.103241) 7 7 2
(0.0472407 0.593432 0.0304141 0.328914) 7 7 2
(0.00270615 0.109174 0.72644 0.16168) 7 7 2
(0.0150118 0.758765 0.0326982 0.193525) 7 7 2
(0.00282193 0.107202 0.254812 0.635164) 7 7 2
(0.409491 0.252186 0.122063 0.21626) 7 131 1
(0.17435 0.300216 0.150132 0.375302) 7 131 1
(0.171826 0.201614 0.181814 0.444745) 7 131 1
(0.332563 0.43324 0.223505 0.0106924) 7 131 1
(0.370376 0.534593 0.0115896 0.0834409) 7 131 1
(0.426992 0.0576641 0.264599 0.250744) 7 131 1
(0.648039 0.198689 0.0110527 0.142219) 7 131 2
(0.0524187 0.0892478 0.478535 0.379798) 7 131 2
(0.822602 0.0313537 0.0621425 0.0839021) 7 131 2
(0.343949 0.23228 0.403437 0.0203342) 7 131 2
(0.00837956 0.0301355 0.0374086 0.924076) 7 131 2
(0.353722 0.017684 0.22843 0.400165) 7 131 2
(0.0179772 0.415146 0.49533 0.0715474) 7 256 1
(0.103587 0.107656 0.121252 0.667504) 7 256 1
(0.62698 0.0752478 0.294439 0.00333281) 7 256 1
(0.196025 0.175392 0.351643 0.276939) 7 256 1
(0.488754 0.019083 0.136453 0.355711) 7 256 1
(0.222842 0.597723 0.15072 0.0287154) 7 256 1
(0.300996 0.228277 0.0206317 0.450096) 7 256 2
(0.533861 0.129589 0.0862686 0.250282) 7 256 2
(0.201075 0.0153584 0.383318 0.400249) 7 256 2
(0.213611 0.684577 0.0805584 0.0212543) 7 256 2
(0.0102655 0.0595806 0.88489 0.0452643) 7 256 2
(0.0508864 0.247072 0.168855 0.533187) 7 256 2
(0.210253 0.202142 0.326631 0.260974) 7 381 1
(0.208095 0.594635 0.167109 0.0301608) 7 381 1
(0.113068 0.341446 0.021952 0.523534) 7 381 1
(0.109074 0.0373672 0.494143 0.359417) 7 381 1
(0.233238 0.287868 0.337757 0.141138) 7 381 1
(0.0049101 0.811276 0.134461 0.0493527) 7 381 1
(0.161491 0.247276 0.433544 0.157689) 7 381 2
(0.334995 0.255042 0.149493 0.260471) 7 381 2
(0.152942 0.148642 0.637913 0.0605035) 7 381 2
(0.0414629 0.231013 0.511785 0.215739) 7 381 2
(0.0274534 0.0423645 0.248235 0.681947) 7 381 2
(0.552716 0.199942 0.160506 0.0868364) 7 381 2
(0.0140658 0.101632 0.057517 0.826785) 7 506 1
(0.215619 0.237242 0.417728 0.129411) 7 506 1
(0.280696 0.138533 0.308842 0.271929) 7 506 1
(0.299191 0.502752 0.022445 0.175613) 7 506 1
(0.25175 0.106077 0.231089 0.411084) 7 506 1
(0.0352825 0.0384554 0.703234 0.223028) 7 506 1
(0.282002 0.0201213 0.143758 0.554119) 7 506 2
(0.148801 0.606801 0.0974216 0.146976) 7 506 2
(0.224061 0.0633569 0.70664 0.00594204) 7 506 2
(0.530386 0.219457 0.0700238 0.180134) 7 506 2
(0.279773 0.122269 0.520504 0.0774541) 7 506 2
(0.457231 0.422387 0.108894 0.0114886) 7 506 2
(0.349887 0.0506097 0.0503231 0.54918) 7 506 2
(0.859398 0.0657554 0.0746653 0.000181694) 7 6 1
(0.0830792 0.56489 0.0824117 0.269619) 7 6 1
(0.240714 0.465223 0.0773845 0.216679) 7 6 1
(0.565249 0.244142 0.112857 0.0777517) 7 6 1
(0.0351018 0.1294 0.633256 0.202242) 7 6 1
(0.634516 0.121143 0.011315 0.233026) 7 6 1
(0.064301 0.22333 0.13034 0.582029) 7 6 2
(0.199053 0.549113 0.1157 0.136134) 7 6 2
(0.0376073 0.422717 0.0937937 0.445882) 7 6 2
(0.0796304 0.110548 0.546119 0.263702) 7 6 2
(0.651992 0.0290473 0.318574 0.000386538) 7 6 2
(0.657272 0.163657 0.15255 0.0265203) 7 6 2
(0.300122 0.37098 0.322478 0.0064194) 7 6 2
(0.494675 0.07436 0.00354929 0.427416) 8 8 1
(0.193191 0.0568698 0.742461 0.00747832) 8 8 1
(0.313738 0.126862 0.49292 0.0664802) 8 8 1
(0.175416 0.478895 0.323297 0.0223917) 8 8 1
(0.721358 0.0785849 0.122989 0.0770688) 8 8 1
(0.223466 0.264181 0.149551 0.362802) 8 8 1
(0.560603 0.0710659 0.0573948 0.310937) 8 8 2
(0.230524 0.377346 0.210253 0.181877) 8 8 2
(0.462998 0.181013 0.201572 0.154418) 8 8 2
(0.0857276 0.192074 0.451793 0.270406) 8 8 2
(0.0917142 0.128746 0.405135 0.374404) 8 8 2
(0.360196 0.206987 0.423737 0.00908108) 8 8 2
(0.157572 0.00644714 0.2192 0.616781) 8 132 1
(0.290196 0.289191 0.243674 0.176939) 8 132 1
(0.0885666 0.273749 0.0475348 0.59015) 8 132 1
(0.105908 0.00589586 0.870199 0.0179972) 8 132 1
(0.173252 0.0464408 0.420739 0.359568) 8 132 1
(0.473833 0.326789 0.0821057 0.117272) 8 132 1
(0.444299 0.173253 0.115699 0.26675) 8 132 2
(0.141527 0.215412 0.538617 0.104444) 8 132 2
(0.0649861 0.706159 0.140608 0.0882466) 8 132 2
(0.00876579 0.332376 0.45038 0.208478) 8 132 2
(0.479853 0.0823627 0.0286532 0.409131) 8 132 2
(0.513995 0.085292 0.198473 0.20224) 8 132 2
(0.0207018 0.675802 0.195359 0.108137) 8 257 1
(0.330579 0.0234406 0.576321 0.0696589) 8 257 1
(0.240991 0.117769 0.241361 0.399879) 8 257 1
(0.620368 0.029087 0.0700211 0.280523) 8 257 1
(0.379663 0.195825 0.0441414 0.380371) 8 257 1
(0.756501 0.183268 0.017465 0.0427658) 8 257 1
(0.31954 0.141506 0.114712 0.424242) 8 257 2
(0.637741 0.00796562 0.191439 0.162854) 8 257 2
(0.0789125 0.0324816 0.130552 0.758054) 8 257 2
(0.545302 0.087401 0.141237 0.22606) 8 257 2
(0.136792 0.259442 0.285521 0.318246) 8 257 2
(0.18912 0.597909 0.210598 0.002373) 8 257 2
(0.0306709 0.109495 0.371966 0.487868) 8 382 1
(0.337875 0.0978264 0.321958 0.242341) 8 382 1
(0.157676 0.265773 0.465094 0.111457) 8 382 1
(0.230489 0.721178 0.0256491 0.0226845) 8 382 1
(0.225581 0.127069 0.147765 0.499585) 8 382 1
(0.622085 0.0232521 0.333953 0.0207101) 8 382 1
(0.60022 0.248212 0.0883457 0.0632228) 8 382 2
(0.38225 0.553573 0.00134991 0.0628263) 8 382 2
(0.226174 0.713034 0.0259587 0.0348334) 8 382 2
(0.216701 0.240614 0.0330646 0.509621) 8 382 2
(0.45882 0.0410984 0.331817 0.168265) 8 382 2
(0.185196 0.348778 0.455135 0.0108917) 8 382 2
(0.161449 0.504609 0.204185 0.129757) 8 507 1