/*--------------------------------*- C++ -*----------------------------------*\
  =========                 |
  \\      /  F ield         | OpenFOAM: The Open Source CFD Toolbox
   \\    /   O peration     | Website:  https://openfoam.org
    \\  /    A nd           | Version:  7
     \\/     M anipulation  |
\*---------------------------------------------------------------------------*/
FoamFile
{
    version     2.0;
    format      ascii;
    class       Cloud<passiveParticle>;
    location    "0/lagrangian/dsmc";
    object      positions;
}
// * * * * * * * * * * * * * * * * * * * * * * * * * * * * * * * * * * * * * //

35843
(
(0.0550254 0.505802 0.376765 0.0624074) 0 0 1
(0.199961 0.0652601 0.398641 0.336138) 0 0 1
(0.766538 0.0259539 0.149487 0.0580203) 0 0 1
(0.106024 0.432133 0.312531 0.149312) 0 0 1
(0.55635 0.0357962 0.102452 0.305402) 0 0 1
(0.240906 0.195888 0.468957 0.0942487) 0 0 1
(0.107092 0.513947 0.0776617 0.301299) 0 0 1
(0.112442 0.309382 0.561508 0.0166669) 0 0 1
(0.141609 0.127826 0.530485 0.20008) 0 0 1
(0.0416003 0.0176722 0.641104 0.299624) 0 0 1
(0.5811 0.0722313 0.270059 0.0766098) 0 0 1
(0.463042 0.0606628 0.158318 0.317978) 0 0 1
(0.558127 0.0402158 0.116669 0.284989) 0 0 2
(0.118923 0.332393 0.494432 0.0542523) 0 0 2
(0.00334811 0.332582 0.0280339 0.636036) 0 0 2
(0.196355 0.0290544 0.409254 0.365336) 0 0 2
(0.0903406 0.479179 0.0483223 0.382158) 0 0 2
(0.246607 0.235757 0.450479 0.0671571) 0 0 2
(0.133168 0.176924 0.544873 0.145034) 0 0 2
(0.0444396 0.303757 0.265094 0.38671) 0 0 2
(0.10134 0.292643 0.38817 0.217848) 0 0 2
(0.133426 0.0652289 0.114109 0.687236) 0 0 2
(0.38391 0.205432 0.282711 0.127947) 0 0 2
(0.116376 0.123269 0.583795 0.176561) 0 0 2
(0.455895 0.0847575 0.117382 0.341966) 0 249 1
(0.774848 0.101622 0.0765429 0.0469871) 0 249 1
(0.297819 0.361156 0.163238 0.177787) 0 249 1
(0.0474364 0.195958 0.334024 0.422582) 0 249 1
(0.166933 0.0164445 0.61618 0.200442) 0 249 1
(0.116518 0.22074 0.588644 0.0740968) 0 249 1
(0.290066 0.356005 0.0342329 0.319697) 0 249 1
(0.439715 0.234435 0.300361 0.0254884) 0 249 1
(0.696583 0.0422799 0.249461 0.0116759) 0 249 1
(0.0687692 0.625899 0.0571574 0.248174) 0 249 1
(0.136647 0.432174 0.199334 0.231846) 0 249 1
(0.133944 0.39699 0.228543 0.240522) 0 249 1
(0.0443835 0.428464 0.082987 0.444165) 0 249 2
(0.433274 0.0373992 0.293387 0.23594) 0 249 2
(0.219612 0.240089 0.472122 0.0681764) 0 249 2
(0.0794663 0.199915 0.346389 0.374229) 0 249 2
(0.415063 0.232775 0.113084 0.239078) 0 249 2
(0.00306339 0.175703 0.103478 0.717756) 0 249 2
(0.0506354 0.724015 0.00461612 0.220733) 0 249 2
(0.0325229 0.136854 0.672308 0.158315) 0 249 2
(0.189825 0.110967 0.586846 0.112362) 0 249 2
(0.114512 0.0762108 0.482156 0.327121) 0 249 2
(0.00311731 0.430131 0.065998 0.500753) 0 249 2
(0.192826 0.562155 0.161651 0.0833679) 0 249 2
(0.261007 0.573472 0.0615701 0.10395) 0 499 1
(0.350755 0.146643 0.209572 0.29303) 0 499 1
(0.450557 0.197442 0.263106 0.0888945) 0 499 1
(0.237663 0.173641 0.471263 0.117433) 0 499 1
(0.128525 0.189839 0.126095 0.555541) 0 499 1
(0.549102 0.0539126 0.333765 0.0632208) 0 499 1
(0.454104 0.061715 0.382454 0.101728) 0 499 1
(0.0778867 0.0868171 0.614034 0.221262) 0 499 1
(0.200271 0.431275 0.217033 0.151421) 0 499 1
(0.437803 0.365135 0.102589 0.0944723) 0 499 1
(0.415604 0.291739 0.189462 0.103195) 0 499 1
(0.12517 0.354232 0.112992 0.407607) 0 499 1
(0.222385 0.231491 0.352862 0.193262) 0 499 2
(0.35589 0.0491115 0.31687 0.278129) 0 499 2
(0.432531 0.174369 0.299948 0.0931524) 0 499 2
(0.190132 0.055994 0.668463 0.0854113) 0 499 2
(0.194599 0.0142523 0.012619 0.77853) 0 499 2
(0.361286 0.27785 0.173681 0.187183) 0 499 2
(0.814964 0.00355642 0.121893 0.0595863) 0 499 2
(0.151579 0.423468 0.248432 0.176521) 0 499 2
(0.123125 0.29028 0.460883 0.125712) 0 499 2
(0.0120708 0.482108 0.277819 0.228002) 0 499 2
(0.0208039 0.0344375 0.0548027 0.889956) 0 499 2
(0.0389041 0.190423 0.56676 0.203913) 0 499 2
(0.0921767 0.131642 0.289401 0.48678) 0 749 1
(0.389589 0.0333576 0.468766 0.108287) 0 749 1
(0.115993 0.704203 0.149876 0.029928) 0 749 1
(0.390915 0.15974 0.132175 0.317171) 0 749 1
(0.320083 0.161566 0.205959 0.312393) 0 749 1
(0.817522 0.0244052 0.0298726 0.1282) 0 749 1
(0.238074 0.147729 0.275955 0.338242) 0 749 1
(0.379811 0.225205 0.32326 0.0717236) 0 749 1
(0.166362 0.427529 0.0110581 0.395051) 0 749 1
(0.492171 0.117011 0.307229 0.083589) 0 749 1
(0.29992 0.151617 0.247213 0.30125) 0 749 1
(0.33125 0.154018 0.343554 0.171179) 0 749 1
(0.369157 0.195285 0.390854 0.0447046) 0 749 2
(0.0720804 0.302325 0.325847 0.299748) 0 749 2
(0.114474 0.154568 0.268779 0.462179) 0 749 2
(0.28773 0.0595468 0.335703 0.317021) 0 749 2
(0.0559757 0.418192 0.227979 0.297853) 0 749 2
(0.400895 0.0840207 0.300095 0.214989) 0 749 2
(0.129972 0.44316 0.320227 0.106642) 0 749 2
(0.293039 0.000851607 0.538705 0.167404) 0 749 2
(0.0399535 0.177962 0.728868 0.0532166) 0 749 2
(0.274748 0.225152 0.485222 0.0148774) 0 749 2
(0.120782 0.689179 0.136913 0.0531258) 0 749 2
(0.38269 0.203372 0.271278 0.142661) 0 749 2
(0.07299 0.381312 0.102209 0.443489) 0 999 1
(0.350793 0.286356 0.0606946 0.302156) 0 999 1
(0.141777 0.404847 0.102944 0.350432) 0 999 1
(0.169263 0.326845 0.0605648 0.443327) 0 999 1
(0.151916 0.1864 0.589384 0.0722994) 0 999 1
(0.121934 0.406724 0.0842206 0.387121) 0 999 1
(0.152929 0.424476 0.138496 0.284099) 0 999 1
(0.133369 0.514805 0.266372 0.0854536) 0 999 1
(0.0797999 0.0026662 0.671816 0.245717) 0 999 1
(0.173714 0.149495 0.0509402 0.62585) 0 999 1
(0.0287328 0.0136374 0.699208 0.258422) 0 999 1
(0.37317 0.503682 0.0369671 0.0861804) 0 999 1
(0.00110015 0.720711 0.0836252 0.194564) 0 999 2
(0.124778 0.673191 0.132549 0.0694817) 0 999 2
(0.810814 0.00785622 0.0632086 0.118121) 0 999 2
(0.410474 0.122173 0.0243094 0.443044) 0 999 2
(0.158695 0.243617 0.36098 0.236708) 0 999 2
(0.272425 0.147349 0.379991 0.200235) 0 999 2
(0.376706 0.182687 0.23779 0.202817) 0 999 2
(0.048592 0.267321 0.475017 0.20907) 0 999 2
(0.625205 0.21088 0.150106 0.013809) 0 999 2
(0.0803245 0.264317 0.534788 0.12057) 0 999 2
(0.292521 0.158382 0.00805256 0.541044) 0 999 2
(0.128938 0.488224 0.0552514 0.327587) 0 999 2
(0.422836 0.298567 0.219819 0.0587783) 0 1249 2
(0.236165 0.192334 0.562698 0.00880213) 0 1249 2
(0.648325 0.00230176 0.16469 0.184683) 0 1249 2
(0.252009 0.15098 0.383714 0.213297) 0 1249 2
(0.254341 0.019212 0.603486 0.122961) 0 1249 2
(0.111488 0.026012 0.190952 0.671548) 0 1249 2
(0.00749118 0.614485 0.252841 0.125183) 0 1249 2
(0.0787013 0.532949 0.162131 0.226219) 0 1249 2
(0.0569097 0.502995 0.0755167 0.364579) 0 1249 2
(0.201028 0.726228 0.047042 0.0257019) 0 1249 2
(0.389288 0.0175041 0.374198 0.21901) 0 1249 2
(0.453877 0.0709854 0.122772 0.352365) 0 1249 2
(0.158242 0.168459 0.0155674 0.657732) 0 1249 1
(0.0920792 0.0304156 0.596404 0.281101) 0 1249 1
(0.0989892 0.195847 0.414146 0.291018) 0 1249 1
(0.261991 0.042181 0.669836 0.0259927) 0 1249 1
(0.139263 0.568493 0.186119 0.106125) 0 1249 1
(0.000495578 0.0529358 0.168819 0.77775) 0 1249 1
(0.121066 0.548042 0.0331725 0.297719) 0 1249 1
(0.0462341 0.3341 0.471889 0.147777) 0 1249 1
(0.138271 0.401172 0.312153 0.148405) 0 1249 1
(0.0789829 0.0322475 0.854812 0.0339574) 0 1249 1
(0.324789 0.275636 0.00275948 0.396815) 0 1249 1
(0.375553 0.192729 0.141846 0.289871) 0 1249 1
(0.421697 0.376699 0.00191875 0.199685) 1 1 1
(0.74361 0.0718437 0.151963 0.0325833) 1 1 1
(0.41422 0.325419 0.0589724 0.201389) 1 1 1
(0.202245 0.458951 0.0186903 0.320113) 1 1 1
(0.058206 0.341326 0.538013 0.0624543) 1 1 1
(0.157519 0.0351491 0.654639 0.152693) 1 1 1
(0.339522 0.143772 0.39441 0.122296) 1 1 1
(0.00763084 0.138168 0.416103 0.438098) 1 1 1
(0.166728 0.473342 0.212463 0.147467) 1 1 1
(0.268531 0.097482 0.152109 0.481878) 1 1 1
(0.409205 0.0520781 0.0518869 0.48683) 1 1 1
(0.017052 0.119758 0.198181 0.66501) 1 1 1
(0.0333089 0.11699 0.337773 0.511928) 1 1 2
(0.660619 0.183625 0.0255084 0.130247) 1 1 2
(0.594668 0.235091 0.0977084 0.0725328) 1 1 2
(0.287816 0.488432 0.14286 0.0808921) 1 1 2
(0.102626 0.085321 0.298326 0.513728) 1 1 2
(0.269179 0.169126 0.186885 0.374809) 1 1 2
(0.48585 0.126022 0.272313 0.115815) 1 1 2
(0.665391 0.146683 0.0708753 0.11705) 1 1 2
(0.489445 0.0241547 0.121145 0.365255) 1 1 2
(0.134644 0.0787775 0.643215 0.143364) 1 1 2
(0.00947666 0.324656 0.128401 0.537467) 1 1 2
(0.324485 0.542425 0.121695 0.0113948) 1 1 2
(0.183908 0.307199 0.35011 0.158783) 1 250 1
(0.769339 0.080594 0.0671864 0.082881) 1 250 1
(0.169086 0.359604 0.42152 0.0497896) 1 250 1
(0.0405096 0.521564 0.198361 0.239565) 1 250 1
(0.408919 0.210972 0.36105 0.0190588) 1 250 1
(0.361198 0.384251 0.210378 0.0441736) 1 250 1
(0.425626 0.265599 0.276816 0.0319588) 1 250 1
(0.365564 0.270407 0.0271891 0.33684) 1 250 1
(0.538489 0.112405 0.127047 0.222059) 1 250 1
(0.113717 0.0477913 0.0653749 0.773117) 1 250 1
(0.0641167 0.0487937 0.442061 0.445028) 1 250 1
(0.390277 0.424956 0.154803 0.0299641) 1 250 2
(0.619728 0.00703597 0.195986 0.17725) 1 250 2
(0.0896796 0.621416 0.220168 0.0687368) 1 250 2
(0.210156 0.241983 0.45295 0.0949108) 1 250 2
(0.0650921 0.573342 0.319724 0.0418426) 1 250 2
(0.033978 0.368525 0.027024 0.570473) 1 250 2
(0.516654 0.0981961 0.268921 0.116229) 1 250 2
(0.224671 0.676313 0.0207848 0.0782306) 1 250 2
(0.0200226 0.80337 0.00530911 0.171298) 1 250 2
(0.0430545 0.559801 0.389595 0.00754953) 1 250 2
(0.0462951 0.45464 0.218052 0.281013) 1 250 2
(0.0498037 0.525621 0.28057 0.144005) 1 250 2
(0.482478 0.214555 0.144436 0.158531) 1 500 1
(0.0584158 0.447529 0.392364 0.101691) 1 500 1
(0.212283 0.0921804 0.270976 0.42456) 1 500 1
(0.0792862 0.218784 0.210756 0.491174) 1 500 1
(0.125082 0.0558877 0.741683 0.0773473) 1 500 1
(0.310817 0.184203 0.183061 0.321919) 1 500 1
(0.65104 0.0912847 0.00088906 0.256786) 1 500 1
(0.0337036 0.214148 0.240586 0.511563) 1 500 1
(0.294749 0.171621 0.49962 0.0340098) 1 500 1
(0.648403 0.000391234 0.0708118 0.280394) 1 500 1
(0.224766 0.0888466 0.358705 0.327683) 1 500 1
(0.471231 0.0905495 0.0197232 0.418496) 1 500 1
(0.151659 0.543998 0.193881 0.110462) 1 500 2
(0.434941 0.0646383 0.335733 0.164688) 1 500 2
(0.46161 0.384248 0.0408961 0.113246) 1 500 2
(0.148386 0.569486 0.117725 0.164403) 1 500 2
(0.790089 0.0876423 0.00799436 0.114275) 1 500 2
(0.218714 0.153776 0.158564 0.468945) 1 500 2
(0.163545 0.0459475 0.78414 0.00636699) 1 500 2
(0.222427 0.495496 0.265759 0.0163178) 1 500 2
(0.755184 0.0312645 0.0835803 0.129971) 1 500 2
(0.223689 0.330202 0.282765 0.163344) 1 500 2
(0.194655 0.0289763 0.352823 0.423546) 1 500 2
(0.0730226 0.100607 0.310481 0.515889) 1 500 2
(0.140403 0.0677747 0.0622221 0.7296) 1 750 1
(0.3652 0.267447 0.0823556 0.284998) 1 750 1
(0.440601 0.0452708 0.379211 0.134917) 1 750 1
(0.131105 0.157797 0.280015 0.431083) 1 750 1
(0.458515 0.164119 0.0464874 0.330878) 1 750 1
(0.189806 0.228903 0.555618 0.0256733) 1 750 1
(0.0531041 0.361551 0.351839 0.233505) 1 750 1
(0.0251227 0.00401222 0.854314 0.116551) 1 750 1
(0.122928 0.101553 0.25 0.525518) 1 750 1
(0.218669 0.595296 0.101699 0.0843355) 1 750 1
(0.691057 0.104191 0.02605 0.178702) 1 750 1
(0.338711 0.0899013 0.165116 0.406272) 1 750 2
(0.134993 0.267949 0.481062 0.115996) 1 750 2
(0.136749 0.287262 0.249305 0.326684) 1 750 2
(0.726621 0.102374 0.102657 0.0683485) 1 750 2
(0.396228 0.256904 0.0805495 0.266319) 1 750 2
(0.402126 0.0563303 0.528788 0.0127557) 1 750 2
(0.453034 0.313191 0.108261 0.125514) 1 750 2
(0.0255463 0.369751 0.295954 0.308749) 1 750 2
(0.0608672 0.285847 0.288892 0.364394) 1 750 2
(0.271611 0.275626 0.434101 0.0186612) 1 750 2
(0.309015 0.498641 0.0544641 0.13788) 1 750 2
(0.330783 0.276762 0.387937 0.00451831) 1 750 2
(0.267132 0.46182 0.0180475 0.253) 1 1000 1
(0.291808 0.0850937 0.10247 0.520628) 1 1000 1
(0.277683 0.271925 0.125571 0.324821) 1 1000 1
(0.483847 0.00157151 0.0305453 0.484036) 1 1000 1
(0.0219924 0.268904 0.22086 0.488244) 1 1000 1
(0.108672 0.527979 0.3349 0.0284485) 1 1000 1
(0.100748 0.20386 0.526147 0.169245) 1 1000 1
(0.640191 0.074246 0.266071 0.0194926) 1 1000 1
(0.499982 0.0516672 0.381105 0.067246) 1 1000 1
(0.122918 0.111728 0.553039 0.212316) 1 1000 1
(0.314823 0.31575 0.222735 0.146692) 1 1000 1
(0.245621 0.661953 0.0624874 0.0299385) 1 1000 1
(0.498253 0.134762 0.12296 0.244025) 1 1000 2
(0.901087 0.0516343 0.0378067 0.00947173) 1 1000 2
(0.10607 0.0713446 0.11631 0.706275) 1 1000 2
(0.500868 0.209521 0.163932 0.125679) 1 1000 2
(0.414659 0.0381275 0.0515824 0.495631) 1 1000 2
(0.0204061 0.08145 0.140543 0.757601) 1 1000 2
(0.178236 0.0794127 0.646571 0.09578) 1 1000 2
(0.472987 0.3272 0.128719 0.0710936) 1 1000 2
(0.179934 0.411062 0.244165 0.164838) 1 1000 2
(0.630408 0.00876402 0.0254623 0.335366) 1 1000 2
(0.215893 0.22335 0.23965 0.321107) 1 1000 2
(0.168248 0.0996286 0.0317451 0.700379) 1 1000 2
(0.0805233 0.596099 0.198659 0.124719) 1 0 1
(0.177406 0.102248 0.438429 0.281916) 1 0 1
(0.110576 0.167157 0.40413 0.318138) 1 0 1
(0.647324 0.0842181 0.224611 0.0438468) 1 0 1
(0.0513936 0.109213 0.486251 0.353143) 1 0 1
(0.196425 0.109585 0.0838956 0.610095) 1 0 1
(0.0832402 0.333142 0.0137639 0.569853) 1 0 1
(0.304257 0.238908 0.211526 0.245309) 1 0 1
(0.154526 0.441403 0.297726 0.106345) 1 0 1
(0.22929 0.451248 0.135981 0.18348) 1 0 1
(0.271124 0.694549 0.0232088 0.0111188) 1 0 1
(0.109596 0.34232 0.318431 0.229653) 1 0 1
(0.107753 0.715527 0.0273217 0.149398) 1 0 2
(0.213688 0.464046 0.258476 0.0637898) 1 0 2
(0.241125 0.64034 0.0646608 0.0538744) 1 0 2
(0.345421 0.132733 0.147886 0.373959) 1 0 2
(0.0401117 0.626353 0.233047 0.100488) 1 0 2
(0.0262144 0.174766 0.631649 0.16737) 1 0 2
(0.265696 0.250595 0.00314566 0.480563) 1 0 2
(0.0393904 0.442266 0.23619 0.282154) 1 0 2
(0.501473 0.0210995 0.054955 0.422472) 1 0 2
(0.352606 0.0917502 0.204345 0.351299) 1 0 2
(0.200894 0.0158238 0.377001 0.406282) 1 0 2
(0.0673768 0.647942 0.192381 0.0923003) 1 0 2
(0.484791 0.135152 0.300767 0.0792891) 2 2 1
(0.0163114 0.257999 0.35786 0.36783) 2 2 1
(0.0633373 0.226204 0.00346298 0.706995) 2 2 1
(0.0505724 0.306088 0.0493683 0.593971) 2 2 1
(0.30453 0.0804357 0.508276 0.106758) 2 2 1
(0.0352659 0.0873259 0.116152 0.761256) 2 2 1
(0.139453 0.783091 0.00389988 0.073556) 2 2 1
(0.218494 0.376083 0.397651 0.00777249) 2 2 1
(0.242814 0.194804 0.212993 0.349389) 2 2 1
(0.126572 0.129583 0.30403 0.439815) 2 2 1
(0.354285 0.379756 0.0143795 0.25158) 2 2 1
(0.272825 0.699738 0.00822381 0.0192139) 2 2 1
(0.246374 0.440573 0.0879347 0.225119) 2 2 2
(0.414009 0.400764 0.103432 0.0817946) 2 2 2
(0.514261 0.0594195 0.339301 0.0870181) 2 2 2
(0.0532314 0.679841 0.202725 0.0642033) 2 2 2
(0.312786 0.204909 0.0673374 0.414968) 2 2 2
(0.367613 0.298458 0.26632 0.0676085) 2 2 2
(0.651359 0.201101 0.144615 0.00292597) 2 2 2
(0.226011 0.250574 0.263255 0.260161) 2 2 2
(0.0784029 0.403385 0.502714 0.0154973) 2 2 2
(0.468727 0.0365798 0.41582 0.078873) 2 2 2
(0.560131 0.212265 0.196195 0.0314084) 2 2 2
(0.249923 0.699562 0.0433523 0.00716325) 2 2 2
(0.0882339 0.0782117 0.644438 0.189116) 2 251 1
(0.244476 0.215023 0.418352 0.122149) 2 251 1
(0.173315 0.097219 0.454582 0.274884) 2 251 1
(0.00108594 0.535433 0.0438834 0.419598) 2 251 1
(0.366887 0.228269 0.399737 0.00510806) 2 251 1
(0.480653 0.26375 0.100796 0.154801) 2 251 1
(0.168591 0.0281897 0.243893 0.559326) 2 251 1
(0.18073 0.171023 0.584635 0.0636127) 2 251 1
(0.100552 0.284817 0.247867 0.366764) 2 251 1
(0.337315 0.344974 0.27665 0.0410608) 2 251 1
(0.237634 0.168608 0.0310967 0.562661) 2 251 1
(0.171432 0.0381336 0.33416 0.456275) 2 251 2
(0.0200701 0.262248 0.0913916 0.626291) 2 251 2
(0.000500508 0.29133 0.29205 0.41612) 2 251 2
(0.465733 0.161605 0.342951 0.0297108) 2 251 2
(0.329869 0.574848 0.0588692 0.0364138) 2 251 2
(0.00367763 0.333591 0.528761 0.133971) 2 251 2
(0.0652131 0.280344 0.484448 0.169994) 2 251 2
(0.016883 0.00148411 0.915328 0.0663053) 2 251 2
(0.0317832 0.244912 0.636628 0.0866776) 2 251 2
(0.678114 0.00523218 0.0199713 0.296682) 2 251 2
(0.432395 0.12709 0.173048 0.267467) 2 251 2
(0.2552 0.667392 0.0174444 0.0599636) 2 251 2
(0.14452 0.592675 0.142995 0.11981) 2 501 1
(0.0390177 0.417346 0.532031 0.0116053) 2 501 1
(0.00809943 0.437009 0.504236 0.0506553) 2 501 1
(0.174323 0.0328967 0.38614 0.40664) 2 501 1
(0.106441 0.432408 0.0144587 0.446693) 2 501 1
(0.239793 0.464098 0.207575 0.0885338) 2 501 1
(0.118311 0.0713546 0.0206661 0.789668) 2 501 1
(0.384901 0.0869707 0.135651 0.392477) 2 501 1
(0.0241938 0.292605 0.529468 0.153734) 2 501 1
(0.344216 0.0276682 0.627894 0.000221295) 2 501 1
(0.0575142 0.359179 0.0886032 0.494704) 2 501 1
(0.250098 0.164585 0.115953 0.469363) 2 501 1
(0.676478 0.018775 0.125376 0.179371) 2 501 2
(0.269053 0.210114 0.12008 0.400753) 2 501 2
(0.268565 0.11286 0.558324 0.0602518) 2 501 2
(0.0256979 0.225072 0.0330583 0.716172) 2 501 2
(0.422759 0.0196156 0.413012 0.144614) 2 501 2
(0.325229 0.0888225 0.077802 0.508147) 2 501 2
(0.0132679 0.417793 0.0496344 0.519305) 2 501 2
(0.0529494 0.498373 0.164803 0.283875) 2 501 2
(0.721615 0.0725079 0.14101 0.0648679) 2 501 2
(0.379857 0.197163 0.288657 0.134323) 2 501 2
(0.558582 0.0730692 0.216336 0.152013) 2 501 2
(0.438803 0.0992729 0.141112 0.320812) 2 501 2
(0.127919 0.1218 0.146155 0.604127) 2 751 1
(0.502793 0.170212 0.201819 0.125176) 2 751 1
(0.227293 0.080159 0.072772 0.619776) 2 751 1
(0.343921 0.32867 0.122149 0.20526) 2 751 1
(0.76831 0.105161 0.0384971 0.0880325) 2 751 1
(0.254142 0.212637 0.484036 0.0491848) 2 751 1
(0.621531 0.113314 0.133457 0.131698) 2 751 1
(0.118444 0.414151 0.419032 0.0483732) 2 751 1
(0.0452073 0.319511 0.571678 0.0636038) 2 751 1
(0.35544 0.299271 0.290945 0.0543444) 2 751 1
(0.143146 0.421619 0.0851153 0.35012) 2 751 1
(0.117538 0.259352 0.226942 0.396168) 2 751 1
(0.00368374 0.238048 0.156971 0.601297) 2 751 2
(0.0206131 0.371628 0.0580793 0.54968) 2 751 2
(0.0695832 0.324424 0.12413 0.481863) 2 751 2
(0.361912 0.116651 0.312821 0.208616) 2 751 2
(0.218428 0.138304 0.484345 0.158923) 2 751 2
(0.219809 0.174282 0.328777 0.277132) 2 751 2
(0.691573 0.154486 0.0754722 0.0784691) 2 751 2
(0.117093 0.322369 0.495814 0.0647247) 2 751 2
(0.414439 0.296009 0.0800819 0.20947) 2 751 2
(0.579988 0.00314545 0.304789 0.112077) 2 751 2
(0.345999 0.0209004 0.235836 0.397264) 2 751 2
(0.371821 0.541533 0.00275137 0.0838939) 2 751 2
(0.44761 0.0320966 0.179129 0.341165) 2 1001 1
(0.363203 0.162898 0.380305 0.0935948) 2 1001 1
(0.224814 0.444154 0.0264538 0.304578) 2 1001 1
(0.37717 0.17463 0.385524 0.0626765) 2 1001 1
(0.481963 0.041314 0.264307 0.212416) 2 1001 1
(0.171468 0.550967 0.0676532 0.209912) 2 1001 1
(0.100894 0.598002 0.0937746 0.207329) 2 1001 1
(0.375582 0.310907 0.29389 0.0196208) 2 1001 1
(0.289892 0.038943 0.420237 0.250928) 2 1001 1
(0.639725 0.090654 0.148526 0.121095) 2 1001 1
(0.462244 0.292173 0.0562425 0.189341) 2 1001 1
(0.322827 0.215849 0.145134 0.31619) 2 1001 1
(0.00861783 0.270948 0.412887 0.307547) 2 1001 2
(0.205542 0.424768 0.160848 0.208843) 2 1001 2
(0.0859672 0.463168 0.427632 0.0232325) 2 1001 2
(0.244968 0.239228 0.448947 0.0668578) 2 1001 2
(0.696037 0.091802 0.0298169 0.182344) 2 1001 2
(0.220799 0.616493 0.125201 0.0375071) 2 1001 2
(0.0224443 0.271649 0.381999 0.323908) 2 1001 2
(0.269725 0.222906 0.283982 0.223387) 2 1001 2
(0.051959 0.00939774 0.752366 0.186277) 2 1001 2
(0.0190567 0.0794626 0.611862 0.289619) 2 1001 2
(0.366908 0.305916 0.0160633 0.311112) 2 1001 2
(0.333878 0.46249 0.122424 0.0812078) 2 1001 2
(0.461728 0.199818 0.158385 0.180069) 2 1 1
(0.410434 0.221729 0.178644 0.189193) 2 1 1
(0.0896324 0.388467 0.175674 0.346226) 2 1 1
(0.126531 0.174698 0.596341 0.10243) 2 1 1
(0.00740362 0.0501053 0.418382 0.524109) 2 1 1
(0.0814245 0.116587 0.381117 0.420871) 2 1 1
(0.151642 0.00054055 0.0961393 0.751678) 2 1 1
(0.0193647 0.320824 0.20655 0.453261) 2 1 1
(0.0794196 0.317984 0.42665 0.175947) 2 1 1
(0.140881 0.336442 0.316555 0.206122) 2 1 1
(0.105102 0.291489 0.0858985 0.517511) 2 1 1
(0.303619 0.0529978 0.60725 0.0361335) 2 1 2
(0.940298 0.0037419 0.0537263 0.00223352) 2 1 2
(0.718468 0.0407637 0.0979441 0.142824) 2 1 2
(0.23808 0.201152 0.0637212 0.497047) 2 1 2
(0.185689 0.327232 0.433347 0.0537315) 2 1 2
(0.172128 0.308792 0.146692 0.372388) 2 1 2
(0.259358 0.465743 0.0350872 0.239812) 2 1 2
(0.0397642 0.340449 0.313487 0.3063) 2 1 2
(0.0358321 0.654321 0.23118 0.0786667) 2 1 2
(0.297656 0.512827 0.141382 0.0481347) 2 1 2
(0.204972 0.206253 0.170049 0.418726) 2 1 2
(0.750085 0.0280606 0.0945258 0.127328) 2 1 2
(0.823335 0.112897 0.0379511 0.0258165) 3 3 1
(0.0401442 0.150612 0.228185 0.581059) 3 3 1
(0.205384 0.0728081 0.0915689 0.630239) 3 3 1
(0.186225 0.353236 0.104801 0.355738) 3 3 1
(0.0123693 0.306015 0.633698 0.0479177) 3 3 1
(0.170003 0.0924636 0.600704 0.136829) 3 3 1
(0.091604 0.269444 0.417631 0.221321) 3 3 1
(0.0529769 0.818438 0.121205 0.00738034) 3 3 1
(0.310296 0.238448 0.369575 0.081682) 3 3 1
(0.329488 0.249401 0.322349 0.0987621) 3 3 1
(0.29536 0.154374 0.0828575 0.467409) 3 3 1
(0.379042 0.103369 0.236842 0.280748) 3 3 1
(0.486737 0.0231253 0.0817573 0.40838) 3 3 2
(0.135479 0.480606 0.0128155 0.3711) 3 3 2
(0.382277 0.176189 0.0557533 0.385781) 3 3 2
(0.450848 0.224179 0.02505 0.299923) 3 3 2
(0.0579128 0.156025 0.510926 0.275136) 3 3 2
(0.488152 0.0331236 0.212381 0.266344) 3 3 2
(0.253084 0.426789 0.28952 0.030607) 3 3 2
(0.0806606 0.228955 0.0995083 0.590876) 3 3 2
(0.453467 0.0376855 0.308078 0.200769) 3 3 2
(0.0636054 0.182852 0.179621 0.573922) 3 3 2
(0.148645 0.41559 0.15323 0.282534) 3 3 2
(0.259854 0.28523 0.0562614 0.398655) 3 3 2
(0.403227 0.0295942 0.202781 0.364397) 3 252 1
(0.297509 0.0950831 0.0407718 0.566636) 3 252 1
(0.208664 0.22791 0.119749 0.443676) 3 252 1
(0.636492 0.235369 0.0985624 0.0295763) 3 252 1
(0.00339914 0.534372 0.192485 0.269744) 3 252 1
(0.166606 0.564215 0.169484 0.0996954) 3 252 1
(0.150013 0.135461 0.643296 0.0712298) 3 252 1
(0.448675 0.200815 0.172435 0.178075) 3 252 1
(0.042139 0.0317238 0.343282 0.582855) 3 252 1
(0.284 0.530083 0.0724434 0.113474) 3 252 1
(0.536517 0.0568777 0.0267795 0.379826) 3 252 1
(0.0897088 0.81769 0.0768589 0.015742) 3 252 1
(0.331388 0.112447 0.199878 0.356287) 3 252 2
(0.30366 0.195533 0.248278 0.252529) 3 252 2
(0.326351 0.0145763 0.252413 0.40666) 3 252 2
(0.146664 0.252566 0.216419 0.384351) 3 252 2
(0.205241 0.156223 0.593439 0.0450973) 3 252 2
(0.469843 0.183532 0.00623422 0.340391) 3 252 2
(0.283144 0.301435 0.295515 0.119906) 3 252 2
(0.193498 0.338893 0.181765 0.285844) 3 252 2
(0.546387 0.0669199 0.00909435 0.377598) 3 252 2
(0.0874502 0.2374 0.574199 0.100951) 3 252 2
(0.191634 0.0789597 0.25901 0.470396) 3 252 2
(0.0189703 0.41383 0.0316602 0.535539) 3 252 2
(0.0567315 0.0591943 0.334771 0.549303) 3 502 1
(0.355672 0.0544052 0.524443 0.0654794) 3 502 1
(0.179307 0.44932 0.163565 0.207808) 3 502 1
(0.596836 0.0432749 0.112359 0.247529) 3 502 1
(0.439076 0.0430623 0.420443 0.0974189) 3 502 1
(0.255808 0.0146499 0.725494 0.00404767) 3 502 1
(0.27069 0.0543884 0.177323 0.497599) 3 502 1
(0.101577 0.501382 0.000364537 0.396676) 3 502 1
(0.446399 0.0723843 0.405376 0.0758409) 3 502 1
(0.325066 0.489819 0.154583 0.0305323) 3 502 1
(0.197216 0.0720495 0.722083 0.00865227) 3 502 1
(0.113162 0.118871 0.0273931 0.740573) 3 502 1
(0.219917 0.095853 0.324678 0.359553) 3 502 2
(0.319371 0.095496 0.0161557 0.568978) 3 502 2
(0.235839 0.0165909 0.497841 0.24973) 3 502 2
(0.0249221 0.782574 0.1612 0.0313043) 3 502 2
(0.253528 0.00800552 0.0199626 0.718503) 3 502 2
(0.298602 0.284817 0.217877 0.198704) 3 502 2
(0.127987 0.0528964 0.243912 0.575204) 3 502 2
(0.488492 0.042645 0.285058 0.183805) 3 502 2
(0.297936 0.183923 0.470425 0.0477153) 3 502 2
(0.212374 0.122338 0.17728 0.488007) 3 502 2
(0.398503 0.0186138 0.514423 0.0684606) 3 502 2
(0.347481 0.0321098 0.215374 0.405035) 3 502 2
(0.3213 0.0180759 0.118921 0.541703) 3 752 1
(0.225087 0.273367 0.184321 0.317225) 3 752 1
(0.18725 0.257575 0.475522 0.0796535) 3 752 1
(0.147948 0.593623 0.114141 0.144288) 3 752 1
(0.307428 0.280799 0.355278 0.0564938) 3 752 1
(0.598009 0.324504 0.0567795 0.0207082) 3 752 1
(0.0146323 0.399637 0.55408 0.0316504) 3 752 1
(0.230652 0.389069 0.222594 0.157684) 3 752 1
(0.517027 0.0471253 0.369196 0.0666521) 3 752 1
(0.346093 0.218266 0.250634 0.185007) 3 752 1
(0.307425 0.403563 0.0151718 0.27384) 3 752 1
(0.356363 0.149021 0.281639 0.212977) 3 752 1
(0.0188296 0.371669 0.042601 0.5669) 3 752 2
(0.570763 0.18106 0.0210561 0.227121) 3 752 2
(0.170017 0.125692 0.0082441 0.696047) 3 752 2
(0.176238 0.574719 0.133005 0.116039) 3 752 2
(0.0337688 0.145096 0.72285 0.0982856) 3 752 2
(0.371421 0.0190181 0.447206 0.162355) 3 752 2
(0.282262 0.454372 0.125314 0.138053) 3 752 2
(0.139042 0.434816 0.338727 0.0874148) 3 752 2
(0.366536 0.55379 0.0124103 0.0672638) 3 752 2
(0.468045 0.147674 0.0753395 0.308942) 3 752 2
(0.699599 0.00968488 0.132618 0.158098) 3 752 2
(0.192932 0.0280022 0.108342 0.670723) 3 752 2
(0.0254253 0.164881 0.785457 0.0242374) 3 1002 1
(0.515333 0.134157 0.178297 0.172213) 3 1002 1
(0.235539 0.55909 0.152333 0.0530368) 3 1002 1
(0.340208 0.0371536 0.245096 0.377543) 3 1002 1
(0.121208 0.543339 0.066306 0.269147) 3 1002 1
(0.216655 0.532915 0.226052 0.0243779) 3 1002 1
(0.0228618 0.0992753 0.408284 0.469579) 3 1002 1
(0.549926 0.0545335 0.234735 0.160806) 3 1002 1
(0.469474 0.2193 0.303099 0.00812672) 3 1002 1
(0.279695 0.208603 0.50698 0.00472277) 3 1002 1
(0.0175862 0.0594484 0.670348 0.252618) 3 1002 1
(0.702841 0.116607 0.12605 0.0545015) 3 1002 1
(0.238833 0.316986 0.0385299 0.405651) 3 1002 2
(0.121332 0.0543039 0.531147 0.293216) 3 1002 2
(0.00700896 0.704536 0.107962 0.180493) 3 1002 2
(0.431526 0.076554 0.279856 0.212064) 3 1002 2
(0.127368 0.632721 0.0352218 0.204689) 3 1002 2
(0.485734 0.125991 0.191016 0.197259) 3 1002 2
(0.00221992 0.056107 0.218442 0.723231) 3 1002 2
(0.0904325 0.334838 0.312326 0.262403) 3 1002 2
(0.617111 0.172639 0.00580295 0.204447) 3 1002 2
(0.214893 0.646799 0.0949964 0.0433118) 3 1002 2
(0.191542 0.0823656 0.097192 0.628901) 3 1002 2
(0.142931 0.0737821 0.0391572 0.744129) 3 1002 2
(0.136354 0.083037 0.650125 0.130484) 3 2 1
(0.218717 0.200167 0.181938 0.399178) 3 2 1
(0.145869 0.497589 0.34187 0.0146712) 3 2 1
(0.528 0.398026 0.0564302 0.0175432) 3 2 1
(0.030652 0.492101 0.436032 0.0412144) 3 2 1
(0.240556 0.195924 0.113582 0.449937) 3 2 1
(0.220171 0.602352 0.0257024 0.151775) 3 2 1
(0.13286 0.586603 0.271332 0.00920494) 3 2 1
(0.0145109 0.0768237 0.665242 0.243424) 3 2 1
(0.0269447 0.373623 0.582591 0.0168407) 3 2 1
(0.0758354 0.0167716 0.0612991 0.846094) 3 2 1
(0.357178 0.295951 0.299038 0.0478331) 3 2 1
(0.763982 0.0164385 0.0196013 0.199978) 3 2 2
(0.412896 0.499198 0.0331405 0.0547655) 3 2 2
(0.169914 0.22133 0.107461 0.501296) 3 2 2
(0.568144 0.217872 0.0778364 0.136148) 3 2 2
(0.102785 0.432499 0.206469 0.258247) 3 2 2
(0.00216139 0.36767 0.292291 0.337878) 3 2 2
(0.22704 0.202386 0.137045 0.433529) 3 2 2
(0.101164 0.18123 0.120928 0.596677) 3 2 2
(0.225416 0.0989331 0.491295 0.184356) 3 2 2
(0.758039 0.0221176 0.196739 0.0231035) 3 2 2
(0.0617241 0.0799424 0.46283 0.395504) 3 2 2
(0.151742 0.0463637 0.149092 0.652802) 4 4 1
(0.0483476 0.0275207 0.316298 0.607834) 4 4 1
(0.436148 0.0588311 0.495609 0.00941138) 4 4 1
(0.1645 0.0760312 0.223461 0.536007) 4 4 1
(0.0176575 0.666177 0.0339919 0.282174) 4 4 1
(0.510047 0.121645 0.250251 0.118057) 4 4 1
(0.206665 0.444552 0.175765 0.173018) 4 4 1
(0.0476893 0.0516456 0.7632 0.137465) 4 4 1
(0.143596 0.0368315 0.085559 0.734014) 4 4 1
(0.611923 0.244722 0.110058 0.0332972) 4 4 1
(0.11651 0.47979 0.316267 0.087432) 4 4 1
(0.812759 0.0479 0.133482 0.00585842) 4 4 1
(0.288773 0.204435 0.0482099 0.458581) 4 4 2
(0.434026 0.0616584 0.0642851 0.440031) 4 4 2
(0.137296 0.404001 0.251902 0.206801) 4 4 2
(0.151862 0.620213 0.1041 0.123825) 4 4 2
(0.000238709 0.148111 0.205234 0.646417) 4 4 2
(0.145387 0.366722 0.188101 0.29979) 4 4 2
(0.469963 0.23512 0.0840524 0.210864) 4 4 2
(0.0120185 0.496864 0.166612 0.324506) 4 4 2
(0.266845 0.0304087 0.00379397 0.698953) 4 4 2
(0.206138 0.570411 0.0762371 0.147214) 4 4 2
(0.221008 0.691521 0.0305038 0.0569677) 4 4 2
(0.322411 0.365256 0.00877412 0.303559) 4 4 2
(0.386466 0.203752 0.19959 0.210191) 4 253 1
(0.36339 0.0632372 0.199648 0.373725) 4 253 1
(0.0145206 0.0907027 0.543456 0.351321) 4 253 1
(0.191111 0.469461 0.034046 0.305382) 4 253 1
(0.184723 0.0860705 0.5623 0.166907) 4 253 1
(0.318535 0.245364 0.0155037 0.420596) 4 253 1
(0.0440022 0.362666 0.392073 0.201259) 4 253 1
(0.240161 0.219638 0.37291 0.167291) 4 253 1
(0.00461294 0.39478 0.492463 0.108144) 4 253 1
(0.0114301 0.820937 0.0700576 0.0975759) 4 253 1
(0.227133 0.214199 0.171113 0.387554) 4 253 1
(0.025192 0.0648347 0.0938608 0.816113) 4 253 1
(0.195236 0.106293 0.112027 0.586443) 4 253 2
(0.0765568 0.0342986 0.620582 0.268563) 4 253 2
(0.358902 0.11886 0.509716 0.0125209) 4 253 2
(0.290853 0.304755 0.15818 0.246213) 4 253 2
(0.389518 0.233394 0.170283 0.206805) 4 253 2
(0.24283 0.419343 0.232161 0.105665) 4 253 2
(0.0356389 0.170785 0.741441 0.0521346) 4 253 2
(0.313733 0.474392 0.00465037 0.207224) 4 253 2
(0.446561 0.147802 0.0251065 0.380531) 4 253 2
(0.135135 0.0333772 0.328291 0.503196) 4 253 2
(0.0613224 0.287209 0.149174 0.502294) 4 253 2
(0.127921 0.159673 0.0785136 0.633893) 4 253 2
(0.351439 0.272497 0.288415 0.0876489) 4 503 1
(0.0520533 0.362905 0.451057 0.133985) 4 503 1
(0.168475 0.279988 0.381122 0.170414) 4 503 1
(0.0379234 0.035782 0.173192 0.753103) 4 503 1
(0.278172 0.161374 0.45363 0.106825) 4 503 1
(0.00514106 0.0626826 0.397579 0.534598) 4 503 1
(0.280431 0.103975 0.190372 0.425222) 4 503 1
(0.322552 0.391425 0.172871 0.113152) 4 503 1
(0.404136 0.0505815 0.317756 0.227527) 4 503 1
(0.366577 0.262849 0.18116 0.189413) 4 503 1
(0.0561377 0.0976317 0.0210328 0.825198) 4 503 1
(0.210039 0.233648 0.340361 0.215952) 4 503 1
(0.256695 0.548126 0.0866303 0.108549) 4 503 2
(0.0196592 0.631394 0.136943 0.212004) 4 503 2
(0.115301 0.154807 0.2838 0.446091) 4 503 2