/*--------------------------------*- C++ -*----------------------------------*\
  =========                 |
  \\      /  F ield         | OpenFOAM: The Open Source CFD Toolbox
   \\    /   O peration     | Website:  https://openfoam.org
    \\  /    A nd           | Version:  7
     \\/     M anipulation  |
\*---------------------------------------------------------------------------*/
FoamFile
{
    version     2.0;
    format      ascii;
    class       vectorField;
    location    "0/lagrangian/dsmc";
    object      U;
}
// * * * * * * * * * * * * * * * * * * * * * * * * * * * * * * * * * * * * * //


9216
(
(-581.809 95.3645 -277.159)
(283.787 -321.973 -509.986)
(167.127 -12.6459 142.77)
(-14.6203 -81.4617 -366.427)
(131.401 21.6243 -189.704)
(243.621 -98.5102 -26.2843)
(323.182 89.973 -140.463)
(12.2962 87.9126 465.784)
(-376.747 -245.221 -202.824)
(473.444 105.218 -318.949)
(-367.241 -474.408 -26.2291)
(220.991 301.976 -307.527)
(62.3908 287.578 35.2531)
(26.3265 -34.5789 -39.4348)
(228.014 -293.984 667.786)
(296.787 147.406 763.571)
(-93.1439 394.936 -59.4739)
(243.033 203.291 -250.348)
(-68.5441 264.144 -130.669)
(46.1436 -201.808 -222.433)
(-64.3636 -303.843 564.513)
(-247.512 -55.7605 -291.805)
(-81.6887 100.962 540.657)
(-35.8732 314.942 -743.762)
(-370.789 400.833 -330.33)
(-23.007 493.303 111.697)
(-248.438 325.345 404.297)
(3.65681 -174.828 -385.85)
(625.349 -107.581 -276.252)
(-362.449 -467.568 57.7638)
(-89.1017 -143.759 51.9811)
(-61.2407 21.107 -230.456)
(175.119 -162.691 380.408)
(-61.4162 249.076 36.902)
(281.551 246.07 10.7758)
(311.824 -682.431 -383.281)
(-500.709 881.988 -271.146)
(332.306 -314.535 -4.02032)
(44.2184 -39.7836 308.849)
(-76.2757 -282.947 -172.779)
(130.171 106.807 -162.3)
(178.014 -113.018 -340.088)
(103.419 193.299 448.401)
(-119.589 16.7843 -532.438)
(-23.9488 181.419 225.142)
(-294.546 147.712 -76.5191)
(85.6924 187.035 -103.409)
(316.074 167.679 -136.405)
(-251.153 337.273 -345.192)
(145.342 -284.07 351.501)
(13.1092 403.947 314.894)
(8.36729 277.211 -490.571)
(-183.468 -477.525 -325.591)
(-29.3446 158.387 214.164)
(-114.594 184.106 -242.328)
(-464.516 93.5264 -13.3055)
(127.396 -108.836 -78.4616)
(112.695 320.273 221.051)
(242.509 78.2165 -232.438)
(-29.5789 175.359 -687.926)
(126.068 373.307 -74.6484)
(-603.485 459.896 -137.209)
(-174.387 -321.845 -140.661)
(13.2613 -212.562 -262.531)
(37.0546 -247.041 392.902)
(-39.707 -81.6548 456.553)
(-135.899 -164.462 636.785)
(182.113 -619.104 23.4917)
(-95.2661 134.342 -712.348)
(-146.996 -80.77 322.615)
(6.81451 -244.477 -369.138)
(538.133 -56.9816 254.302)
(216.587 -254.164 -61.4783)
(-408.773 363.201 66.1238)
(-151.251 85.4383 -59.5572)
(-160.14 -149.242 301.714)
(-65.4056 -236.666 -392.098)
(-223.566 40.5486 -233.7)
(-228.981 68.6793 227.759)
(462.351 241.716 -141.413)
(309.279 -182.265 -94.5797)
(45.1428 -419.811 -203.723)
(-91.165 -571.842 -325.272)
(140.228 93.5841 -200.192)
(-126.708 -11.7236 17.9972)
(349.283 -335.103 9.99734)
(-538.319 58.8168 227.383)
(-148.745 -320.77 84.4906)
(-354.981 -48.4566 146.57)
(230.409 114.646 48.5556)
(28.4499 -384.89 55.5538)
(449.806 -284 -381.485)
(348.185 -319.844 35.7327)
(-116.937 661.324 16.6605)
(310.021 -207.103 -434.413)
(-226.564 71.695 -426.93)
(112.89 174.484 324.612)
(-416.435 186.445 519.26)
(-115.749 -71.2678 -99.2802)
(-277.236 -402.485 -71.3287)
(481.804 381.812 -114.828)
(-28.729 -442.797 68.3916)
(-95.8985 83.7417 309.132)
(433.158 -172.418 -42.5258)
(-81.1908 -390.226 29.7987)
(24.4974 -177.069 -174.881)
(-355.032 26.1305 -180.118)
(202.603 -164.371 287.04)
(-53.9001 -120.832 -441.371)
(-264.133 -69.9337 224.658)
(148.226 -327.269 45.7642)
(-139.585 -18.1632 -309.792)
(130.274 -463.21 63.9667)
(-269.074 -264.681 -391.401)
(-716.096 147.45 -355.607)
(127.934 439.024 -26.3856)
(153.756 -61.5018 340.308)
(162.228 401.901 433.374)
(-754.35 -238.12 -93.8753)
(-111.736 179.088 -370.574)
(121.695 157.019 -266.698)
(-352.95 86.2799 -7.87804)
(-103.409 -130.898 -164.765)
(-82.5711 -77.1631 406.273)
(4.04162 36.9486 -80.0479)
(113.035 197.186 -93.332)
(-127.243 51.3958 -486.946)
(280.17 77.468 417.647)
(348.761 678.812 455.801)
(-121.696 76.0784 206.583)
(-681.068 -161.642 159.311)
(332.011 -211.825 -33.2078)
(-160.856 -206.931 -186.509)
(590.107 439.206 -286.201)
(155.479 364.775 7.75642)
(45.7859 -226.071 46.1192)
(84.8501 122.889 -103.311)
(505.986 186.961 473.259)
(-416.366 30.9753 -834.064)
(5.40117 182.257 -231.458)
(9.02317 -61.5856 162.978)
(243.314 -550.03 16.7006)
(-133.233 -385.271 -255.674)
(385.54 -426.685 -553.438)
(345.013 121.208 446.549)
(250.352 125.12 306.434)
(-99.9234 10.1121 170.727)
(-267.958 88.8763 74.0858)
(-132.249 -395.3 77.4454)
(-384.43 -616.931 237.214)
(67.5258 76.3191 626.959)
(-57.3215 200.755 153.764)
(-125.908 271.454 -160.886)
(-449.495 -380.704 216.922)
(-176.592 28.5641 -524.458)
(-313.398 146.53 -460.726)
(-265.192 -136.477 220.843)
(30.2394 374.257 39.9071)
(252.703 278.083 -37.7528)
(-14.3444 262.791 146.475)
(-490.34 -627.326 203.402)
(340.488 -202.794 -56.8339)
(-112.761 309.518 138.006)
(117.039 -459.34 20.878)
(52.4518 298.411 -425.89)
(-568.823 187.22 74.997)
(-108.403 209.831 236.566)
(-87.4762 337.908 -128.066)
(123.516 -114.72 315.751)
(392.271 -369.462 -78.6285)
(329.198 95.2473 -342.349)
(89.8981 25.1466 912.646)
(214.943 -26.3078 -171.85)
(-217.44 265.009 143.627)
(165.193 -47.1667 -222.602)
(81.4435 -389.888 455.55)
(-16.9232 -90.2818 -87.1351)
(628.647 80.5296 19.8252)
(95.007 -193.648 386.749)
(-211.663 -239.21 -73.8183)
(291.891 -134.003 236.659)
(131.176 -171.024 182.981)
(189.295 -44.6927 -366.115)
(-28.7118 -232.252 3.09665)
(-116.414 425.235 -27.1769)
(-548.198 94.2955 -362.486)
(166.628 313.462 474.96)
(-46.5008 263.558 -409.546)
(-97.1924 -149.991 -32.2013)
(-81.7556 -584.261 -329.841)
(-58.6815 87.6417 198.062)
(-87.211 -252.254 416.933)
(-355.463 303.796 98.7393)
(362.21 -74.481 269.166)
(272.247 -618.725 501.618)
(-239.935 610.869 -110.739)
(-476.403 -184.756 -413.575)
(174.39 -111.954 3.26344)
(202.148 -772.913 -422.268)
(-317.118 -184.611 462.926)
(213.775 81.0612 -27.5099)
(-272.548 -253.273 161.301)
(516.938 -338.936 747.007)
(-373.334 50.2187 -416.647)
(590.287 -277.336 260.979)
(-260.308 510.455 350.831)
(569.589 515.658 160.185)
(201.413 -363.379 325.108)
(-77.3745 286.829 128.221)
(-129.117 -149.119 443.202)
(200.116 -244.476 -359.979)
(193.287 -196.448 451.26)
(-457.001 -50.6535 23.405)
(-186.437 -101.49 -65.5993)
(163.893 477.594 149.975)
(-37.4025 -126.072 462.698)
(395.132 -197.585 212.289)
(114.501 -146.68 -331.272)
(-746.964 139.185 -117.001)
(-231.41 -297.282 262.513)
(269.004 260.549 13.5004)
(130.52 -8.73178 -556.784)
(-152.977 -189.26 23.2135)
(-100.101 -133.047 -70.4662)
(-211.284 -192.546 -80.465)
(-171.247 -14.8526 74.1179)
(224.89 326.9 45.1398)
(-72.63 66.6298 -84.6288)
(-88.3623 -219.152 -81.0413)
(-127.904 271.725 274.022)
(-88.1764 322.479 307.101)
(69.7946 -287.523 -180.758)
(550.116 -718.894 28.7799)
(-329.826 86.4798 -315.494)
(-352.794 -270.886 80.4565)
(-370.221 324.4 222.223)
(116.574 350.963 -243.959)
(81.7245 -96.2273 -318.397)
(84.405 -283.644 152.486)
(320.4 -6.04468 -502.81)
(69.042 -17.5263 115.415)
(-464.881 335.656 -229.305)
(119.539 314.734 227.936)
(-34.6197 -636.596 89.2227)
(74.2055 801.494 250.335)
(-158.379 321.295 108.472)
(559.75 308.62 -626.779)
(-23.7254 67.1473 -63.474)
(-435.614 236.61 -17.1454)
(-15.6013 85.1834 251.482)
(-31.7874 -234.71 -240.874)
(271.657 66.4454 90.1289)
(-54.225 -75.9919 -18.8625)
(-145.696 -121.839 436.605)
(-70.2622 -18.0367 -191.914)
(-573.75 617.386 408.007)
(-525.081 -97.9956 16.4658)
(167.41 215.311 -274.95)
(-527.668 -162.933 -609.275)
(-346.716 387.698 135.899)
(187.498 299.025 96.423)
(104.463 -381.48 152.705)
(-5.25209 -440.7 -153.083)
(207.622 267.199 34.174)
(-397.323 253.773 -310.675)
(-143.084 -179.796 66.0003)
(156.759 227.133 1.98129)
(485.094 71.1648 115.822)
(236.125 -126.75 -68.0728)
(-691.809 213.411 -299.024)
(695.443 -133.209 36.5216)
(-33.0049 133.275 265.576)
(207.398 -725.805 -20.4792)
(39.2366 -139.188 -62.2919)
(524.388 35.6324 90.5109)
(23.3551 -856.728 -224.41)
(-15.5291 241.157 563.825)
(295.98 277.206 -174.152)
(213.449 297.985 -212.502)
(-364.103 -360.619 340.163)
(-30.5787 86.6167 287.113)
(-752.847 -140.514 155.721)
(-501.163 -252.856 196.335)
(-227.941 -498.571 432.341)
(-179.457 80.0681 -277.883)
(343.167 414.253 46.5237)
(602.646 -377.323 -345.011)
(-237.891 257.227 -424.062)
(155.983 170.794 -117.734)
(367.43 -789.466 -105.859)
(214.764 139.529 709.835)
(-71.6943 209.599 -435.831)
(-38.596 136.422 137.941)
(147.945 142.353 32.2563)
(119.933 -355.148 165.235)
(318.16 -521.82 -44.3422)
(-269.311 -33.8586 -53.7433)
(-472.609 -61.4413 -155.037)
(-641.799 446.236 392.224)
(412.74 318.684 -443.353)
(-568.845 158.54 -104.974)
(-119.791 -548.892 -538.387)
(-144.74 366.394 376.844)
(265.31 97.1652 227.056)
(-23.0029 -385.33 -85.4771)
(29.6434 188.786 169.247)
(-99.3924 -66.039 407.459)
(-50.557 214.784 122.091)
(8.30925 -198.934 362.152)
(-38.066 -418.644 -631.379)
(14.4002 -248.816 30.5109)
(64.4892 -220.843 -215.033)
(113.351 232.885 -167.038)
(270.57 381.296 84.8891)
(642.209 -169.506 154.994)
(-145.85 -435.53 236.438)
(-323.262 -369.32 170.643)
(290.288 238.844 170.821)
(-432.768 -6.12821 -441.649)
(58.5147 273.354 -182.191)
(201.835 89.946 354.218)
(-305.172 56.879 -237.146)
(-105.772 -45.228 -312.326)
(96.5439 102.237 48.094)
(299.887 380.428 -166.179)
(520.256 28.1064 -94.3224)
(691.462 -358.794 -83.9158)
(216.714 -110.912 290.48)
(-369.89 -177.848 -1.57076)
(62.3365 -253.667 -609.077)
(39.8846 -603.743 -496.224)
(110.701 -610.394 139.821)
(253.758 -126.468 56.6162)
(400.758 522.265 -293.462)
(-191.014 23.0804 -327.794)
(93.6217 -135.478 -478.816)
(296.007 -102.486 -52.8094)
(-69.902 166.508 553.122)
(-9.70699 9.25148 459.942)
(-136.488 -168.525 167.46)
(381.288 -168.821 96.2476)
(-449.606 -155.957 -695.145)
(-240.698 -352.265 -381.96)
(-297.242 549.925 -424.626)
(169.099 509.395 196.446)
(192.437 68.1223 235.967)
(-86.7525 -276.513 158.738)
(206.381 427.689 166.967)
(417.039 255.509 -110.091)
(184.424 645.32 -106.855)
(212.106 -25.0783 147.138)
(354.096 53.3105 -205.586)
(101.524 261.14 239.093)
(-19.7356 -51.3155 -283.661)
(211.159 853.174 62.2675)
(118.306 -576.079 -415.395)
(28.6266 496.909 422.617)
(85.3354 -159.339 -96.2637)
(-226.837 494.421 -293.607)
(-108.508 3.4627 -373.16)
(-338.705 46.0981 252.306)
(474.552 -41.9442 15.3937)
(-502.167 -137.467 25.4604)
(-31.555 467.059 -41.7587)
(-202.509 88.5401 -257.943)
(-308.869 -307.428 -203.524)
(-226.167 414.476 662.34)
(-126.734 152.403 -859.062)
(-14.816 -135.954 -279.526)
(249.216 193.607 129.256)
(93.2923 -366.907 -323.409)
(200.615 -233.063 398.249)
(55.6889 -545.444 -73.9219)
(-318.134 -3.24332 275.417)
(320.834 393.82 -2.31656)
(-140.127 283.854 -72.8521)
(41.2046 -262.429 -428.608)
(-15.2121 -59.1419 238.614)
(-257.825 -9.81384 -280.602)
(137.25 81.5775 -297.965)
(46.8335 359.762 56.1599)
(95.0429 304.639 -137.154)
(-133.809 43.4733 431.874)
(-199.457 780.921 -362.516)
(-161.335 59.4863 299.715)
(-5.68277 -182.487 587.747)
(-316.774 88.6713 650.451)
(141.877 -36.2718 164.307)
(-40.8275 -253.327 186.1)
(-296.247 195.965 -15.3332)
(-10.6152 113.148 377.514)
(14.644 -80.1903 -130.721)
(-717.539 6.23049 125.154)
(-10.2086 -48.2337 128.597)
(75.3327 343.238 1.73062)
(-396.443 233.317 130.667)
(236.17 449.903 -52.9163)
(405.333 -216.31 -600.59)
(420.963 206.389 264.298)
(-184.601 -240.549 11.1374)
(150.635 -658.29 -205.054)
(-266.753 -482.196 -15.9942)
(577.058 254.551 -221.132)
(164.241 -296.802 76.4824)
(355.717 229.739 329.58)
(-358.923 29.6302 38.6139)
(208.37 -316.105 -428.493)
(444.506 204.098 290.684)
(-239.463 -52.0281 -509.862)
(-139.558 240.466 -112.76)
(-33.2672 292.084 -238.153)
(-113.015 -88.5661 117.891)
(18.6994 70.6195 -186.69)
(-156.568 127.562 449.361)
(74.9882 -59.5475 73.8654)
(-544.107 -82.2776 287.518)
(299.598 237.957 156.682)
(-245.735 -253.791 -114.552)
(258.749 586.368 -5.15061)
(-363.689 -105.607 -92.5625)
(32.1197 53.6904 35.6049)
(-148.226 -403.859 33.2413)
(277.481 326.912 -195.111)
(494.96 -101.507 152.204)
(-433.651 -411.256 -546.594)
(-7.08108 -292.83 -228.551)
(155.043 602.613 -208.589)
(-330.407 -701.874 247.815)
(93.9232 174.124 168.222)
(-328.643 -517.793 -56.3642)
(-45.3033 -390.6 -45.9095)
(178.339 -306.552 -478.903)
(317.319 -90.3359 1.55937)
(-183.159 589.315 210.649)
(324.749 -142.557 -64.7406)
(155.925 72.352 379.722)
(309.233 -64.6711 480.309)
(95.2053 160.691 -72.2349)
(-24.5227 -270.2 -282.436)
(58.7197 -91.0071 -490.741)
(177.039 147.94 -255.668)
(377.045 110.055 440.592)
(-495.684 295.392 -140.013)
(153.503 461.415 -196.239)
(-47.525 320.907 -736.813)
(218.498 224.747 143.246)
(-241.136 309.053 607.509)
(342.687 57.7991 -120.172)
(275.084 -324.451 -333.989)
(152.334 420.159 -373.81)
(239.734 37.0132 62.2887)
(-281.146 -129.917 136.755)
(504.054 585.325 129.912)
(247.877 114.628 -359.508)
(205.556 -398.142 -310.73)
(-58.9692 -82.5046 274.807)
(196.084 -277.88 1.5208)
(-247.064 -311.549 238.686)
(210.857 62.9267 348.455)
(255.801 -168.681 81.8054)
(-170.733 -12.5504 -0.622065)
(-162.787 -148.064 79.2453)
(-349.156 190.117 358.986)
(-6.0243 -125.453 15.6941)
(-308.104 492.04 -456.955)
(-60.8717 68.5465 -37.8564)
(-24.7006 -114.769 217.28)
(-182.726 439.669 288.141)
(277.406 452.819 607.562)
(-810.729 99.9507 434.42)
(-228.895 -904.303 -62.6184)
(-146.189 342.354 232.845)
(-258.058 -243.515 293.464)
(137.2 136.839 -317.639)
(-584.946 -52.2604 278.738)
(180.785 4.03242 -22.5434)
(-91.9018 -43.9641 -37.692)
(-328.782 -285.653 -403.966)
(98.5498 -72.5173 -436.609)
(-284.459 -30.0279 466.697)
(-102.886 -96.0753 -387.94)
(536.276 422.316 -121.836)
(136.069 -113.741 -240.153)
(633.518 -220.413 -295.125)
(210.603 -290.529 58.2299)
(-215.019 -127.441 -75.463)
(-233.764 -162.086 -23.8069)
(73.1334 -330.079 62.456)
(453.406 -178.571 105.477)
(-487.486 -142.083 -549.099)
(660.163 -88.8195 222.105)
(-39.6741 -248.772 267.43)
(-69.2737 -9.17493 87.8949)
(-159.204 -307.623 -128.697)
(504.948 522.705 -320.544)
(-16.5471 -479.262 -244.08)
(-304.177 -74.3959 359.827)
(117.233 76.7313 -270.918)
(427.726 450.321 -172.657)
(47.5587 519.925 -245.836)
(671.63 31.1996 -367.6)
(-123.281 -73.3929 -38.1401)
(444.137 -200.265 -222.524)
(-37.8631 15.5087 78.4995)
(284.147 473.487 258.448)
(246.198 392.38 329.545)
(121.771 121.864 374.855)
(147.669 140.501 -423.492)
(217.201 -408.609 381.184)
(101.344 248.249 -82.9543)
(-270.728 371.303 6.61953)
(154.366 -58.4485 74.7402)
(-209.604 33.6009 -769.186)
(504.174 390.994 2.97805)
(-176.368 253.786 -221.014)
(-147.574 983.003 -139.337)
(-170.508 439.462 411.462)
(-35.0764 644.735 87.9631)
(-3.99111 -462.612 58.3006)
(347.964 -144.1 -364.156)
(-210.949 -123.227 -454.094)
(442.446 129.305 -320.307)
(-196.489 711.686 386.717)
(288.549 -218.255 -267.011)
(111.998 132.832 -67.4972)
(-41.7519 -340.254 423.813)
(225.83 197.871 -297.806)
(-246.301 132.194 37.0168)
(256.535 -78.3226 511.793)
(423.877 469.011 209.716)
(39.9347 -92.8941 -510.901)
(331.964 -8.21555 -58.0023)
(230.67 -171.872 -56.7037)
(43.9343 398.196 144.382)
(364.818 102.984 138.201)
(77.7029 -15.0601 -264.722)
(215.903 -199.672 -302.246)
(-253.251 -391.519 -211.696)
(95.9266 253.514 168.18)
(-181.484 -329.026 -605.102)
(5.2156 523.91 -316.63)
(311.476 405.23 -71.4094)
(-63.4127 -81.8296 -1.14309)
(708.423 -164.462 -417.885)
(-285.073 -73.5432 -393.946)
(-196.211 303.559 -166.904)
(-137.595 -538.854 -243.366)
(400.31 59.0101 7.63776)
(-55.2571 112.426 -268.341)
(167.727 -540.799 -530.921)
(-204.983 30.8339 314.091)
(-231.264 -8.65445 114.518)
(-179.705 38.591 -66.8943)
(588.225 252.102 -123.333)
(-83.425 172.773 323.033)
(-342.204 75.1848 406.866)
(159.768 -71.4994 408.842)
(542.639 -211.262 290.195)
(-309.385 380.235 516.182)
(536.25 293.671 644.23)
(-297.515 -144.915 266.583)
(-94.878 -28.6671 60.3579)
(-97.912 278.88 228.438)
(64.3627 -173.723 127.868)
(180.056 -126.412 584.046)
(413.43 57.6476 161.365)
(76.8062 388.46 -447.855)
(-82.7899 -352.392 144.068)
(-317.341 -347.614 -305.337)
(-57.7503 -221.616 534.298)
(131.843 -220.743 -109.618)
(327.037 65.5486 -121.157)
(362.971 -108.796 -381.952)
(40.4723 -307.892 -29.9216)
(-112.621 -54.2244 255.2)
(-37.4309 -452.762 264.471)
(-42.2298 -57.6554 173.161)
(-426.041 48.5858 -6.46926)
(221.145 -355.387 164.764)
(-172.398 452.601 176.408)
(-63.9197 293.451 -307.531)
(144.092 -275.84 -173.389)
(245.006 -302.547 -94.9961)
(72.9522 125.521 -215.952)
(-442.077 -176.235 -247.385)
(45.6397 -208.748 340.056)
(-95.0739 -55.4579 -293.589)
(57.3484 -201.995 141.197)
(-450.695 -57.6666 -40.3576)
(565.643 374.735 -150.462)
(-81.4045 -146.113 -29.3413)
(93.3552 428.717 148.293)
(-403.432 -136.253 290.954)
(94.6566 125.845 -204.409)
(-325.363 -224.334 304.645)
(-46.1952 -504.826 207.78)
(-161.976 487.171 529.112)
(136.814 335.659 -128.568)
(408.864 16.5861 -39.4365)
(71.6278 289.052 -103.112)
(549.387 -131.219 -116.291)
(-171.593 66.5962 280.994)
(-497.535 -635.86 173.131)
(-97.3043 -322.465 -220.384)
(-1030.33 339.277 0.606014)
(102.074 328.773 -289.085)
(-206.492 131.991 144.002)
(-529.28 -595.957 -75.4554)
(248.323 -195.438 -42.4563)
(460.658 414.126 131.989)
(-127.562 234.678 -159.878)
(161.176 -48.2905 144.82)
(-145.863 -418.485 -459.226)
(361.69 101.711 187.084)
(-379.511 237.7 -4.90494)
(440.103 179.392 -77.6493)
(-356.105 -744.683 -396.301)
(48.1688 -196.374 285.215)
(35.3807 -405.992 -2.99981)
(-187.778 -33.859 137.789)
(1.95852 -55.0324 -96.1335)
(55.8906 196.993 -110.683)
(-154.252 367.865 -208.762)
(-92.2558 -195.737 204.388)
(558.994 269.012 -0.513869)
(-477.531 -445.689 125.551)
(-647.655 -565.556 643.406)
(-57.436 -226.107 -22.2236)
(912.938 -164.641 77.2114)
(-270.698 -722.649 25.2518)
(189.96 90.0544 102.154)
(-40.8562 -451.811 -50.3038)
(138.135 117.576 -46.4293)
(-446.56 -159.267 309.637)
(187.652 -25.4162 -534.669)
(364.027 115.886 390.143)
(217.714 -8.00703 373.097)
(10.6606 -339.18 -100.789)
(-213.739 -562.879 -129.911)
(-434.381 -375.789 40.0559)
(14.8928 143.384 307.81)
(-261.197 -430.863 -299.152)
(-199.106 248.032 -47.0992)
(325.783 159.13 287.403)
(-16.8899 -165.143 828.694)
(53.1213 -148.632 -522.96)
(384.275 6.00713 -4.60068)
(-409.603 -14.0141 -142.563)
(375.142 500.711 -135.057)
(-0.162305 -395.736 -147.103)
(-145.437 12.939 101.915)
(56.0528 -214.331 109.356)
(-255.142 -578.099 -93.5139)
(506.828 -614.574 -661.79)
(-344.546 135.676 255.462)
(-59.4424 -119.337 -231.838)
(-253.754 -112.998 -241.21)
(319.114 217.635 -79.3726)
(-348.595 306.946 -326.442)
(-589.295 624.796 -172.414)
(-207.917 181.368 404.936)
(-267.043 -112.759 -246.312)
(-114.989 207.062 -247.198)
(-144.665 -86.6085 -297.51)
(180.962 71.817 122.424)
(-129.615 -294.995 -255.822)
(148.249 200.746 450.091)
(303.223 6.83512 562.316)
(-57.0597 435.676 -78.7354)
(-175.411 134.312 66.9749)
(46.6611 12.3313 495.905)
(77.3509 -162.025 277.115)
(312.284 19.894 136.095)
(676.233 332.683 98.0839)
(8.30397 45.0955 -166.818)
(-121.315 334.44 216.203)
(-205.959 -185.063 -147.314)
(171.919 440.03 565.897)
(512.099 231.462 -126.21)
(-451.713 -64.7641 2.22907)
(370.51 -22.1012 69.599)
(68.7513 332.153 259.924)
(145.522 129.928 133.257)
(-271.344 -237.928 -334.056)
(10.2223 -126.039 41.5681)
(18.1523 -187.501 -629.798)
(334.25 -273.732 -36.6079)
(-69.0832 -484.66 40.359)
(-143.849 269.991 382.214)
(-252.46 -97.9554 -380.524)
(133.585 -148.238 -299.874)
(149.956 112.305 -594.469)
(36.0831 -71.8935 332.458)
(-212.959 -537.146 -215.309)
(388.327 -421.507 -553.41)
(-65.613 -113.088 104.425)
(280.655 -49.2031 -204.908)
(-371.296 286.085 494.072)
(-108.713 -64.841 -221.635)
(3.57194 275.325 -603.364)
(-83.3324 -71.9413 168.514)
(-81.584 -216.665 -132.66)
(-710.085 -64.9923 7.08414)
(-208.552 564.118 -243.992)
(52.054 542.737 -460.503)
(-540.287 -82.8843 682.994)
(-131.851 -579.29 -331.482)
(-212.176 -144.4 -54.2409)
(-56.2432 -168.183 230.603)
(280.345 231.153 -202.475)
(-265.859 -278.381 445.75)
(-174.588 -213.717 -155.091)
(337.957 195.368 -282.555)
(-194.218 394.206 47.9708)
(-80.3725 57.1902 -40.7516)
(66.7119 151.477 -286.501)
(249.474 -176.02 10.7939)
(84.4683 -529.815 -23.6511)
(629.788 -46.3059 185.272)
(145.385 248.456 -96.2371)
(433.528 -209.469 97.6901)
(-220.924 454.83 -377.63)
(283.103 577.66 -415.867)
(237.062 251.422 -172.877)
(351.684 244.487 -310.596)
(-87.0838 410.349 451.61)
(-145.66 670.402 316.623)
(139.343 128.488 207.864)
(179.915 -149.654 12.9618)
(518.88 10.2482 231.202)
(244.236 156.496 361.733)
(317.631 -24.8583 698.947)
(-100.07 -84.8244 176.407)
(239.166 72.5309 -336.307)
(216.587 404.458 -189.448)
(256.469 213.733 285.214)
(-247.831 72.5192 412.096)
(2.4321 -391.214 -104.434)
(215.426 19.4603 -509.862)
(-261.644 -764.108 464.946)
(187.295 190.556 347.409)
(5.98965 -53.7234 299.397)
(51.318 539.366 -1.38703)
(-288.042 -76.1141 -46.8975)
(-162.122 -461.203 159.077)
(-488.191 -224.569 -642.02)
(7.36618 893.454 289.488)
(-158.219 338.272 15.7836)
(105.553 678.429 146.146)
(-52.1738 -113.694 533.697)
(451.448 -18.1167 -81.3946)
(267.523 109.668 -481.975)
(-22.2256 -69.4566 -590.779)
(-402.742 88.9474 -11.9543)
(81.2152 349.199 99.436)
(14.5028 613.319 480.087)
(293.861 418.002 -527.219)
(453.992 426.968 -84.2523)
(-0.0862666 -325.834 171.022)
(88.9783 -62.9056 -392.294)
(-450.108 -199.513 -316.531)
(31.1954 -238.075 417.375)
(-18.1084 633.36 254.869)
(191.847 -27.2526 -354.275)
(-182.059 623.376 285.404)
(-11.3213 191.569 362.662)
(27.0258 208.315 321.374)
(202.149 -218.525 91.632)
(-64.5834 154.161 -42.102)
(381.897 105.024 511.556)
(-244.559 622.006 231.903)
(-395.175 708.844 -410.86)
(-125.923 -324.893 85.952)
(-394.618 314.71 802.393)
(374.718 -194.764 -121.205)
(100.523 -350.116 247.247)
(34.0783 324.572 163.445)
(-39.4609 -839.209 48.4993)
(67.9492 272.931 179.419)
(8.93767 -414.784 19.9989)
(493.919 130.856 -96.3368)
(-426.351 -160.212 -123.901)
(208.785 -218.916 106.014)
(-317.514 -317.067 -34.6212)
(-147.127 -167.049 50.4481)
(90.0731 240.874 309.682)
(-412.625 335.917 208.028)
(-104.559 57.0611 -170.637)
(-164.721 -101.626 -218.422)
(163.447 401.726 -535.902)
(225.189 227.352 -182.259)
(-60.3153 65.4293 -139.351)
(76.1149 -692.123 -370.757)
(-156.389 -185.706 -143.626)
(50.9624 247.595 -582.246)
(-328.126 -6.58897 119.907)
(-318.228 172.197 25.1436)
(-151.643 207.001 284.375)
(-199.14 -38.0887 265.828)
(28.2536 27.0021 -243.571)
(224.666 850.432 -360.799)
(344.428 282.065 -371.151)
(180.284 -68.3178 334.293)
(-103.838 -394.598 31.2807)
(447.214 -381.246 -101.084)
(291.011 345.033 -148.208)
(52.7793 143.734 199.438)
(83.1261 22.7311 411.545)
(123.208 -43.0817 -232.251)
(-430.126 470.132 113.594)
(-113.797 -211.807 -321.675)
(362.152 44.6297 -183.663)
(-155.863 23.9681 51.771)
(129.24 -119.806 151.394)
(10.6849 36.7016 -397.656)
(-329.341 -102.797 -335.887)
(-436.15 -64.4724 -91.9401)
(10.0283 403.51 -536.96)
(525.19 103.422 214.488)
(-305.885 274.384 672.517)
(170.247 -93.7461 -27.2215)
(124.431 -619.517 -269.02)
(-89.0385 137.273 181.656)
(-543.511 -409.808 264.117)
(328.409 -344.455 39.9577)
(-95.9212 -198.124 -138.751)
(565.388 -135.898 5.06475)
(218.135 200.3 428.711)
(194.429 480.585 -97.0903)
(511.289 -262.535 128.039)
(98.5724 -56.288 130.02)
(8.52998 -85.9298 16.6709)
(-651.738 697.088 705.672)
(-289.403 108.798 -318.392)
(140.398 435.551 158.685)
(293.966 19.0584 49.1253)
(239.879 166.464 121.894)
(82.955 586.143 287.582)
(-401.848 -177.806 -275.262)
(526.166 298.788 -34.5017)
(-175.199 509.376 -182.88)
(58.0394 260.974 -33.7015)
(-549.962 154.75 41.5948)
(-28.457 315.512 482.523)
(-301.1 -21.0358 397.158)
(-76.3609 506.402 -265.676)
(125.625 -75.028 330.558)
(27.0942 -330.95 -298.084)
(472.096 -389.728 -134.326)
(-271.805 111.184 146.857)
(145.288 -153.407 90.6168)
(69.9853 -102.705 427.999)
(308.512 98.201 52.1877)
(262.96 -82.8958 395.123)
(288.427 -21.551 502.88)
(-521.11 226.998 -243.014)
(91.3433 292.963 111.748)
(164.114 -168.511 4.5851)
(-79.0249 -128.935 168.896)
(-74.2802 315.698 -195.496)
(149.207 42.3563 -182.046)
(128.505 -946.86 -249.352)
(-241.661 -94.955 -53.366)
(507.853 -312.038 313.491)
(-127.179 209.923 -174.647)
(340.366 94.604 -495.176)
(-335.005 417.383 710.893)
(-277.044 476.355 -36.1373)
(-102.061 402.479 879.357)
(144.287 123.347 129.452)
(-131.903 418.234 546.115)
(-196.897 275.666 85.7535)
(-117.717 -342.646 79.118)
(29.6291 221.567 -193.242)
(-164.305 -84.4345 -285.355)
(-101.832 238.219 -3.20762)
(441.737 49.3137 394.604)
(-123.284 66.5048 -287.15)
(112.218 -250.167 -257.848)
(75.9637 295.937 250.745)
(40.9908 -607.102 -492.959)
(422.894 -239.492 493.912)
(203.329 -250.622 -106.579)
(126.016 135.577 -702.687)
(-56.9428 -71.3914 -439.725)
(-104.463 -369.612 123.698)
(-236.584 -539.33 358.436)
(636.554 166.263 -7.1406)
(-157.87 134.205 364.663)
(47.4746 310.63 -218.131)
(530.474 -151.033 -60.6872)
(21.5808 -256.867 66.8987)
(280.862 86.8238 -625.338)
(-242.941 -282.507 196.75)
(-56.7241 95.8139 387.948)
(-29.2944 -27.183 151.356)
(-544.412 -209.435 -243.105)
(-88.9793 26.5795 109.089)
(-136.904 184.196 215.503)
(204.235 13.9314 220.916)
(-195.457 -133.075 -360.118)
(392.807 291.486 60.2892)
(-146.692 -435.222 351.139)
(-182.567 248.39 304.129)
(-373.755 325.654 -347.109)
(-354.432 -184.802 -332.759)
(239.909 691.845 374.956)
(-141.488 -74.5933 -400.736)
(-13.3763 598.49 408.902)
(134.343 501.526 135.217)
(-13.3098 -46.5284 -55.115)
(-307.449 -165.782 200.597)
(249.926 -292.175 108.255)
(-200.51 -655.563 -224.979)
(-84.983 81.4811 -131.948)
(-503.708 -93.7651 35.5927)
(-551.768 287.781 -471.182)
(537.846 -296.704 -222.329)
(-393.998 184.834 48.6516)
(-30.8596 -14.2701 358.961)
(278.004 -164.034 -83.8795)
(-22.6131 368.236 -63.127)
(407.842 351.718 -287.719)
(-437.874 142.88 -624.371)
(621.242 680.592 103.276)
(-603.008 -556.122 237.492)
(198.167 84.8156 43.7059)
(388.261 12.4278 100.747)
(-186.095 527.139 -464.456)
(653.183 -609.216 9.66556)
(-159.481 14.6091 -14.0089)
(-223.161 35.5158 205.594)
(-790.895 -523.34 62.6162)
(86.6236 44.7535 154.964)
(239.895 -495.376 56.1843)
(-188.116 -230.603 -241.87)
(383.51 -126.956 -97.6656)
(-113.017 -80.744 421.871)
(-113.702 -433.459 -81.3207)
(-334.127 -143.131 -693.428)
(213.482 147.362 80.9645)
(-308.386 196.439 23.8511)
(295.159 -309.807 -82.4789)
(94.6261 -374.228 -405.863)
(167.676 -340.664 -410.473)
(-27.8974 281.233 -49.8271)
(-315.756 -310.036 -34.7881)
(-202.923 227.148 -749.046)
(-499.951 214.331 -662.659)
(-115.521 -308.326 324.578)
(48.1823 -3.60778 192.019)
(-477.179 -61.4738 -60.1782)
(415.646 235.976 225.458)
(-411.691 -285.308 -66.1696)
(-103.668 646.661 142.397)
(-236.812 172.253 -131.613)
(-206.001 58.4335 -80.3586)
(-182.904 22.4769 22.3596)
(120.562 47.3219 -206.442)
(-7.32142 290.229 99.3678)
(-121.849 -72.6487 -168.118)
(100.725 538.661 -762.458)
(-40.2161 -36.4307 -406.665)
(-533.139 -14.389 128.47)
(99.9104 302.798 577.779)
(-416.253 27.0127 -457.831)
(114.588 213.649 -203.004)
(153.957 -253.034 60.2141)
(-343.208 203.02 50.1467)
(225.372 31.4053 -331.052)
(-261.074 -739.675 -128.236)
(163.949 -214.142 356.556)
(77.1571 -394.391 293.975)
(44.3252 -191.117 352.956)
(115.433 -617.81 83.1562)
(3.61461 5.16364 35.3126)
(41.6003 -585.546 405.229)
(-83.4255 -280.416 21.3199)
(-104.292 -13.4356 -218.18)
(-295.276 136.491 -46.2651)
(479.054 -198.153 104.44)
(243.091 -542.931 73.8718)
(335.496 517.189 205.457)
(-215.883 -160.233 -260.218)
(-43.3789 -153.685 604.349)
(557.806 1133.18 184.985)
(-38.0545 -16.3438 -286.67)
(-257.634 -330.68 194.813)
(-196.345 646.831 234.577)
(717.358 33.13 222.182)
(272.425 -43.8932 252.469)
(-210.678 -290.14 265.12)
(340.133 71.7974 -110.448)
(-94.8593 292.227 549.253)
(1.84667 239.512 -213.593)
(-33.9093 558.942 -8.0105)
(164.842 -88.3786 -25.9741)
(311.284 78.425 -156.559)
(135.024 -306.546 -20.5466)
(-196.134 228.729 312.582)
(492.871 498.739 -8.15215)
(393.496 -140.625 83.1304)
(-154.152 -42.0119 130.307)
(-335.268 611.697 -392.422)
(137.052 -99.5477 34.2005)
(-708.583 -353.608 -353.429)
(-0.722779 466.702 188.874)
(-320.726 296.396 -548.156)
(-319.614 76.16 -355.834)
(-572.35 202.638 343.668)
(311.558 -162.535 -679.189)
(-74.1653 62.8408 -44.9635)
(47.3107 -559.741 43.2839)
(117.054 170.786 223.478)
(210.851 272.558 40.1094)
(-152.034 242.247 -321.313)
(-200.798 393.24 -106.694)
(70.4435 83.9207 -392.573)
(462.22 -99.009 -45.2188)
(-140.72 -753.917 295.523)
(95.1706 -904.064 -11.0905)
(394.106 -138.006 -141.758)
(-30.5299 345.436 213.505)
(-70.2044 -616.478 -78.5124)
(342.951 -3.19486 -110.646)
(-15.5636 132.763 2.23584)
(-482.595 526.436 -369.593)
(284.991 -10.0167 549.178)
(-128.581 -263.559 -34.9172)
(-277.867 -202.49 6.37236)
(-19.7565 229.295 -96.5749)
(-46.102 -299.083 -260.364)
(54.0648 103.243 -225.44)
(-353.14 0.683018 274.37)
(210.721 -395.46 -24.5315)
(565.549 -361.702 -518.097)
(770.288 27.3388 -446.181)
(-178.465 -274.787 375.588)
(372.17 -48.4888 -354.985)
(-45.8551 -223.541 -78.5835)
(109.26 -116.317 -546.105)
(-370.441 -726.959 27.853)
(123.696 -727.115 127.66)
(-258.504 -221.342 -82.235)
(-1.48268 516.227 -331.738)
(-36.697 -35.5636 -134.412)
(-333.473 25.525 194.068)
(-25.9367 -134.934 202.929)
(-63.0025 -245.159 -136.284)
(-662.535 -93.8978 -38.2141)
(58.5263 -59.6055 174.467)
(120.578 281.575 -290.753)
(3.13617 -159.191 -180.569)
(451.04 725.051 202.74)
(388.326 163.182 107.398)
(326.117 -59.1522 -320.059)
(249.116 -261.544 -273.59)
(-258.052 148.912 215.72)
(-451.873 -313.122 289.843)
(-0.187761 -169.74 -2.63816)
(-120.636 -24.4757 404.506)
(381.702 322.146 -52.4539)
(370.801 -81.8129 468.395)
(69.0544 531.588 142.154)
(-596.928 -408.181 21.3551)
(-387.884 490.186 -276.302)
(-27.8283 623.888 -240.638)
(284.659 -512.085 -75.9788)
(-266.8 -380.078 -17.852)
(-93.0136 212.713 182.264)
(-316.068 242.618 160.102)
(31.0146 458.384 -206.329)
(419.465 -443.495 251.161)
(-24.7517 -93.2369 -776.262)
(377.24 -441.639 399.956)
(253.508 314.745 -541.733)
(164.551 286.577 245.915)
(251.771 309.463 19.1697)
(-56.1544 -237.275 83.137)
(70.6076 180.903 241.984)