/*--------------------------------*- C++ -*----------------------------------*\
  =========                 |
  \\      /  F ield         | OpenFOAM: The Open Source CFD Toolbox
   \\    /   O peration     | Website:  https://openfoam.org
    \\  /    A nd           | Version:  7
     \\/     M anipulation  |
\*---------------------------------------------------------------------------*/
FoamFile
{
    version     2.0;
    format      ascii;
    class       vectorField;
    location    "0/lagrangian/dsmc";
    object      U;
}
// * * * * * * * * * * * * * * * * * * * * * * * * * * * * * * * * * * * * * //


35843
(
(-212.709 261.359 8.35882)
(-335.211 -82.2834 42.9683)
(99.9752 -183.894 33.2306)
(-366.541 9.37994 296.687)
(88.7093 -393.706 -289.365)
(176.322 31.4654 138.365)
(-27.6521 595.426 -71.3315)
(65.782 -104.402 263.504)
(-61.2975 482.45 -156.376)
(-408.097 47.283 -343.413)
(153.805 -38.6369 84.3882)
(-15.6216 21.4065 35.316)
(-16.841 -54.6752 9.66198)
(131.399 57.6438 -216.13)
(-419.607 -60.215 13.2295)
(69.9102 -91.4933 -64.2698)
(228.598 311.678 -252.457)
(-19.8154 -89.3604 285.073)
(104.987 -59.7014 -388.033)
(-33.0597 -87.604 334.094)
(-23.8772 -52.265 157.17)
(-480.914 -325.576 179.681)
(-56.1972 -51.4468 -245.945)
(-234.762 -145.082 201.265)
(88.2099 293.187 94.2137)
(-367.462 -164.615 -5.29808)
(358.668 36.8397 -192.342)
(-77.9716 311.899 -311.446)
(351.884 196.491 98.3531)
(11.8815 29.7022 45.7138)
(120.628 174.246 247.173)
(81.3443 -273.271 130.845)
(389.761 372.834 111.507)
(126.773 218.864 -255.026)
(78.053 39.4889 -298.631)
(32.527 106.422 84.9366)
(174.653 21.1077 -67.1756)
(190.473 -20.5084 -99.2969)
(60.4236 -286.705 -130.603)
(-155.582 156.672 147.834)
(0.910827 -171.301 -202.138)
(17.5366 414.92 147.719)
(-23.2409 -48.8405 35.7025)
(115.357 104.087 -208.589)
(-474.949 230.922 -69.5825)
(-245.106 -33.8891 -242.362)
(-43.5967 -173.735 -260.081)
(336.477 86.1043 -216.775)
(-250.072 17.7666 28.084)
(135.993 65.7985 -98.7952)
(244.83 -81.7382 -262.268)
(-357.109 308.295 343.498)
(322.431 -238.788 43.5585)
(30.9618 297.089 -224.364)
(-39.8155 -305.514 300.509)
(400.43 172.778 62.9042)
(9.13545 -42.619 107.702)
(-6.37913 154.042 -140.959)
(114.213 -33.6585 84.9729)
(3.89464 -195.14 -27.8974)
(216.489 -122.115 -52.3832)
(-45.2199 -350.458 -125.591)
(106.073 10.1728 -245.884)
(23.1496 121.334 73.4515)
(-244.903 57.7575 -170.001)
(199.705 313.863 180.861)
(-138.095 96.6586 299.139)
(-11.8122 265.895 -7.05615)
(220.322 114.024 301.3)
(71.1298 -143.562 18.1749)
(-232.23 196.821 -24.2863)
(137.693 -18.4415 -379.729)
(-65.1085 57.8478 -249.179)
(-79.4435 -210.079 118.224)
(-383.457 -228.853 11.6765)
(434.69 -407.398 -60.2818)
(30.2529 470.114 -91.6965)
(-12.4054 -163.608 -42.5061)
(49.5517 -208.703 -82.8532)
(-385.901 -221.948 -198.765)
(-76.6193 192.532 -453.654)
(-30.2558 -73.2984 41.6572)
(-168.589 -85.7027 40.4771)
(4.13222 -170.768 -238.455)
(64.0309 -222.268 284.228)
(-129.259 78.4867 -2.9589)
(-284.664 54.1087 -309.006)
(219.23 -327.902 -16.334)
(191.474 -484.251 -126.294)
(26.3853 -10.1891 256.533)
(-127.861 -6.7662 -165.179)
(-222.284 -63.9714 -340.048)
(-148.59 -167.455 53.148)
(-193.92 251.797 -38.6563)
(-107.638 -56.8875 237.951)
(332.936 134.539 -280.856)
(143.417 279.584 -167.379)
(194.421 -141.231 -486.366)
(-158.785 36.9736 72.8724)
(76.5774 -43.313 443.589)
(-243.709 11.2673 542.765)
(190.417 19.1202 186.718)
(182.051 -89.2729 -61.5458)
(-472.47 -257.649 -46.3894)
(-185.958 -353.167 168.179)
(380.629 398.791 -199.278)
(-238.575 -76.0027 -198.237)
(37.2265 -111.126 47.9482)
(72.9563 307.114 332.852)
(-370.308 -170.202 56.1383)
(-98.1063 258.794 517.429)
(62.5769 -193.676 -280.867)
(131.918 289.599 169.997)
(-165.191 30.4831 -242.323)
(281.138 -256.229 -119.587)
(95.2104 -1.05459 -181.485)
(-262.855 -3.12608 112.959)
(-555.99 213.938 91.2616)
(-366.555 304.052 99.1561)
(366.358 -153.772 -66.4883)
(133.995 -91.7516 -154.101)
(-1.58137 -136.836 257.224)
(251.403 442.719 -18.1715)
(76.1034 -505.213 97.75)
(-43.4856 -256.409 -223.269)
(9.76614 -40.0184 -88.9702)
(-34.1075 -317.354 45.5902)
(36.0176 -231.58 152.175)
(188.845 -94.328 100.565)
(-116.986 246.216 95.8758)
(-156.741 -141.903 -365.294)
(-102.077 259.343 43.216)
(225.682 -32.6189 30.3775)
(133.587 -391.569 18.1563)
(-30.5485 273.958 -309.546)
(428.866 -218.507 110.835)
(42.401 -350.374 -35.9739)
(-92.5995 -53.1088 -146.564)
(-100.492 260.022 -12.7353)
(103.013 169.408 201.246)
(253.045 379.043 -372.455)
(88.4497 -276.632 -357.017)
(206.43 411.9 -82.476)
(265.683 -184.43 568.943)
(325.038 26.2418 -186.893)
(149.195 -354.008 100.84)
(-81.127 -266.289 -246.849)
(184.738 31.2256 146.938)
(-438.531 176.368 119.28)
(90.317 -111.133 3.10064)
(-151.359 -38.1829 -262.57)
(39.5711 314.21 -324.926)
(326.551 -188.428 93.9098)
(51.9285 23.5427 -94.2252)
(45.256 -201.212 39.6818)
(45.3113 143.474 -306.876)
(-142.242 136.984 3.07463)
(-216.626 10.9509 -243.727)
(-186.63 -53.7345 -110.646)
(210.797 42.0567 114.693)
(-184.83 -239.42 -78.0897)
(136.19 -294.06 285.306)
(300.143 -374.297 -215.937)
(-15.1087 -78.6005 54.192)
(-53.7679 -293.519 -314.956)
(-55.4345 381.442 -416.165)
(193.198 -221.427 138.808)
(213.041 59.9688 371.536)
(-198.42 -293.257 -45.8771)
(7.40907 -53.0918 -188.051)
(-36.4654 140.754 -31.4739)
(-43.9707 -101.749 411.024)
(41.156 0.903459 96.2805)
(188.211 244.392 153.195)
(350.51 -107.364 -253.199)
(29.9991 93.7737 -51.8781)
(-181.202 103.766 165.394)
(43.9606 -36.9163 80.4793)
(43.8099 -110.229 140.881)
(184.583 -66.7418 -144.6)
(-8.09054 237.768 -44.0097)
(211.627 213.927 15.2774)
(-99.1305 93.4917 163.864)
(255.482 329.556 -350.63)
(-19.8937 -104.551 183.487)
(30.2061 -91.634 -15.0091)
(13.7872 -37.3895 349.173)
(-340.349 671.286 11.7903)
(-5.63789 -106.472 -235.633)
(187.747 -1.18056 565.843)
(140.515 79.3414 52.0303)
(-100.054 106.969 63.738)
(34.0951 -36.0199 -59.7035)
(112.434 104.255 -129.04)
(-119.657 -136.853 -25.6132)
(-50.648 103.597 46.3675)
(-18.8778 -17.4719 -88.7028)
(77.6967 294.606 300.605)
(-9.68223 291.211 6.50816)
(-136.712 238.379 -64.0063)
(-5.23074 -5.49938 -390.445)
(153.951 -2.90363 38.4088)
(-27.3574 49.4199 161.643)
(-334.612 -43.7548 172.07)
(110.585 -316.84 -30.5213)
(-173.523 243.05 37.9245)
(198.707 -404.998 453.526)
(132.832 -279.863 -418.24)
(-486.633 20.2991 111.914)
(243.785 -23.8239 160.443)
(70.918 -293.779 -288.687)
(-43.2665 128.61 -232.973)
(-344.134 307.354 348.413)
(-35.9273 -146.844 348.715)
(404.625 -307.735 -258.23)
(-319.446 -86.3032 386.114)
(-162.571 351.041 -162.682)
(-153.001 255.131 -208.798)
(24.2916 41.367 -167.551)
(-161.736 -219.502 -16.9662)
(-144.546 55.7604 -71.1546)
(-353.496 132.933 -144.269)
(2.98513 272.893 -279.207)
(243.749 89.94 -484.99)
(67.1467 -469.125 -132.774)
(143.659 49.7757 -136.184)
(-154.54 190.215 388.816)
(153.536 -208.883 -47.5329)
(-68.7732 381.801 57.1385)
(114.775 -205.396 -190.008)
(-248.012 -283.524 20.6611)
(435.36 -214.901 -31.4804)
(-233.517 798.554 177.043)
(-230.473 99.4329 3.96201)
(-150.494 316.556 260.766)
(251.738 17.8664 -640.863)
(40.3334 -273.841 327.465)
(122.512 81.6192 -68.3378)
(-193.768 -500.806 573.933)
(166.736 -132.126 91.8564)
(-2.65859 59.6197 355.308)
(274.065 -92.7704 -238.713)
(-17.5496 -205.482 -86.8671)
(401.621 -198.456 -183.458)
(19.1581 156.629 -120.73)
(114.019 195.36 -294.47)
(92.7782 -70.1014 -491.525)
(-282.438 250.08 -47.8094)
(-302.022 -96.8931 13.7134)
(138.679 243.3 -178.932)
(-82.1834 28.7077 -140.268)
(130.581 60.0157 47.5892)
(143.114 -292.379 485.057)
(219.383 218.852 219.383)
(204.362 -348.696 -2.33564)
(124.359 239.082 89.3387)
(-206.779 43.5128 46.7454)
(-128.482 162.8 246.764)
(-49.6884 -134.999 -118.276)
(-250.858 203.834 56.5047)
(-5.42387 -147.277 -6.00721)
(-148.027 -16.5274 -60.7774)
(-722.822 224.12 -108.797)
(79.3982 -66.2432 506.773)
(-23.3498 519.216 -300.062)
(-324.594 -254.996 480.064)
(26.6195 95.6551 -271.695)
(254.45 -693.988 124.855)
(-396.794 92.3279 85.7659)
(-113.233 -187.904 8.15485)
(-128.61 -195.179 -226.458)
(-33.486 129.776 54.1068)
(-127.115 432.621 91.3471)
(208.465 69.9471 -72.8968)
(98.756 14.1949 -86.1238)
(-351.123 301.805 -28.125)
(145.079 -272.171 121.432)
(-195.955 65.036 308.741)
(-141.465 198.468 -224.458)
(-431.798 -199.077 119.343)
(140.53 224.327 -188.867)
(-45.8687 186.217 229.272)
(-285.712 -415.852 -88.8029)
(-138.86 -62.3336 17.2172)
(85.2408 -74.1731 -6.67769)
(-395.274 275.137 77.7702)
(-445.287 -30.4162 -406.994)
(42.6018 -181.148 -96.1227)
(163.404 192.869 -428.337)
(60.7956 -428.869 -78.9717)
(-156.341 -275.006 375.528)
(-30.2757 58.8293 52.8068)
(-275.892 -234.164 169.553)
(-232.762 -315.477 141.52)
(41.7168 -60.4182 217.73)
(54.6765 -249.389 247.671)
(-167.665 309.064 7.18723)
(-299.874 -273.733 207.298)
(419.223 -484.188 476.056)
(-396.428 256.579 -47.569)
(164.635 -187.213 -12.6476)
(-127.794 -163.861 -274.791)
(-242.414 -203.709 228.61)
(-106.875 -144.471 -6.08771)
(65.4127 225.281 -66.5617)
(-245.953 298.959 178.019)
(93.1018 -436.591 284.356)
(347.352 -473.341 -291.463)
(-539.979 356.095 196.343)
(-136.522 -231.865 344.627)
(211.759 -243.126 -134.122)
(124.433 375.949 17.9456)
(92.7133 -89.3746 119.923)
(42.706 79.1013 -36.8794)
(-58.2459 233.981 -93.5004)
(-5.45237 -61.0575 -202.544)
(-3.85789 301.942 201.628)
(-20.2212 -333.305 71.2194)
(48.0697 -134.986 -35.1407)
(-2.7126 78.8322 -142.183)
(25.3697 104.362 -2.83697)
(277.733 221.099 -233.67)
(88.323 130.306 60.7792)
(-74.507 -93.878 -270.584)
(-199.658 -6.89001 349.948)
(24.0558 72.6577 -75.3486)
(-180.684 86.7191 -151.004)
(4.12155 33.9481 -84.215)
(-327.733 9.59659 -323.727)
(129.309 -197.127 40.0689)
(-41.5615 -77.6849 254.063)
(24.3127 -19.9947 -203.744)
(87.2069 18.2261 -182.118)
(-40.6689 329.347 -411.751)
(350.566 64.5544 131.528)
(40.8647 -333.198 158.124)
(318.231 168.408 37.9693)
(-24.2413 253.063 236.949)
(-266.034 54.3935 238.857)
(73.5879 -366.423 -319.846)
(33.0888 -42.3141 389.296)
(-133.057 -123.459 157.509)
(52.2571 -154.354 -125.117)
(-415.487 -31.5914 31.6493)
(-116.634 -131.298 -294.815)
(63.928 248.573 -127.887)
(33.5801 160.598 -121.795)
(-411.458 471.53 -396.117)
(381.185 429.671 9.32856)
(212.233 7.67821 422.621)
(-69.2549 287.925 4.15211)
(-143.07 7.34574 87.0712)
(301.424 -199.761 -506.622)
(-19.914 -38.1639 -233.702)
(-109.369 156.761 -81.9365)
(184.923 -120.244 -140.779)
(93.8822 -76.8778 90.5749)
(-281.44 -205.92 101.593)
(57.7507 -227.864 -23.4923)
(-97.5418 162.36 -11.3002)
(-158.263 35.207 264.455)
(270.845 443.397 620.846)
(-222.471 -168.058 123.066)
(-178.071 57.0478 178.617)
(139.844 -4.85578 325.211)
(-8.37597 133.416 -25.771)
(241.922 -8.9199 -185.463)
(52.3402 -273.748 272.111)
(-143.525 -21.8842 195.427)
(-17.1868 -73.1026 98.5768)
(3.45784 -7.57164 -145.819)
(40.4844 -209.88 -52.5052)
(198.981 -110.924 101.101)
(65.5 44.5048 120.92)
(66.2903 -114.92 163.83)
(79.8454 -131.181 446.798)
(-78.0892 -13.0402 153.592)
(-78.0672 -34.8005 44.7944)
(-101.24 -95.9021 161.295)
(216.46 145.791 110.205)
(-31.0004 228.616 -257.362)
(-384.478 -158.525 135.658)
(-325.49 368.776 494.377)
(84.5503 509.243 144.78)
(18.2525 49.51 357.81)
(-14.1354 153.109 242.646)
(35.3576 -404.941 239.683)
(-32.2271 11.9651 38.1864)
(2.63158 253.218 479.955)
(35.6591 -357.094 129.751)
(27.6803 -37.9564 391.251)
(-148.094 -258.608 -291.504)
(-150.155 -16.8889 337.424)
(-34.7542 -76.1806 124.799)
(-85.3258 290.235 73.1208)
(-203.542 -239.638 -184.118)
(-80.2431 -66.0512 -25.3801)
(-205.869 90.7554 -3.57726)
(315.019 -139.038 315.446)
(-271.345 88.4272 123.439)
(-208.443 -23.5792 -92.6446)
(238.241 56.7159 122.257)
(-198.018 32.3551 -220.032)
(-186.754 -107.894 -134.229)
(235.697 64.054 256.013)
(200.899 -67.9596 -61.4585)
(257.444 44.9923 430.764)
(164.33 274.046 -334.796)
(-72.5887 -450.618 368.551)
(-402.844 393.779 -105.3)
(-216.772 -51.8205 124.747)
(289.234 225.25 -78.7566)
(-23.1079 -268.937 -187.276)
(209.446 -509.128 -4.62891)
(14.9534 277.978 123.788)
(77.44 180.311 225.882)
(-6.46786 562.729 46.2921)
(-194.578 162.505 -181.701)
(180.293 -138.045 362.122)
(236.915 66.8949 -125.086)
(415.957 -13.807 -24.7587)
(21.0351 -120.377 -317.756)
(-238.557 129.794 -238.651)
(-45.3914 -234.727 -186.245)
(177.242 -267.779 296.031)
(-18.7608 106.428 -211.448)
(-26.6346 36.8758 -566.617)
(111.49 42.5021 167.343)
(16.1964 100.515 -412.586)
(387.398 39.0692 -32.5189)
(-66.4041 -333.883 -77.304)
(170.958 -243.882 -175.63)
(45.6074 291.565 147.748)
(28.0797 237.027 -128.494)
(2.1822 -32.9452 -330.359)
(-308.883 317.57 235.367)
(193.127 -130.605 45.656)
(3.07101 192.761 -381.73)
(114.798 -3.70457 83.0006)
(72.0127 228.495 35.3225)
(-98.6012 -151.595 -152.692)
(-184.074 1.09684 -72.8496)
(-170.178 521.528 108.723)
(-47.4219 -154.847 37.3863)
(73.9136 -71.3442 81.8563)
(-96.0349 117.502 -6.97192)
(408.418 91.3328 239.176)
(-436.459 136.447 -51.4148)
(211.265 527.976 174.52)
(280.986 -194.955 -331.898)
(-137.185 -294.983 1.6399)
(-98.1471 -11.3668 86.799)
(-74.8507 235.737 41.488)
(-399.628 -17.9625 147.843)
(-229.229 90.4404 -134.906)
(194.261 133.115 -72.516)
(133.307 -151.331 -206.378)
(122.355 -64.2902 311.756)
(29.9355 173.566 162.989)
(188.448 -503.646 -156.033)
(-195.99 -23.0337 -87.9652)
(-93.5422 42.4102 -30.505)
(60.2838 338.544 -129.267)
(-235.05 -360.815 -300.738)
(-100.606 -9.10373 -29.0653)
(78.4235 -94.4345 144.86)
(-75.3273 45.2303 138.42)
(205.399 28.228 -7.67849)
(27.7859 194.368 -54.3305)
(-62.8692 -150.518 -87.9141)
(3.02591 -60.2621 27.7249)
(291.467 -234.4 -114.752)
(-24.8559 277.835 98.0073)
(23.4046 -44.6668 -123.339)
(-96.0736 -72.8123 -278.352)
(-240.243 -83.4567 159.742)
(223.989 13.1712 -264.999)
(-17.8598 184.799 -175.885)
(138.466 65.151 18.4173)
(162.047 -90.708 -132.333)
(95.9133 -226.332 -100.535)
(-66.0751 -217.458 -112.487)
(-612.565 -50.5402 99.1217)
(433.229 -296.188 410.976)
(-29.9172 318.099 57.0902)
(125.192 -336.504 -303.692)
(16.107 -110.498 -40.7223)
(-157.433 82.1572 -73.8502)
(170.821 -610.724 154.069)
(93.0639 -61.5777 -124.809)
(110.042 -195.965 -248.037)
(88.1465 -56.806 -73.5268)
(169.132 86.7767 17.6702)
(283.566 140.539 243.355)
(-256.559 -291.417 137.115)
(137.237 -180.818 -321.536)
(-230.725 -103.433 132.057)
(106.001 41.7047 279.215)
(-107.673 139.458 -312.229)
(-290.286 9.61771 49.4578)
(167.855 302.527 34.0182)
(-313.462 -140.766 -431.784)
(145.188 48.6446 2.05124)
(-242.346 -85.4008 -189.163)
(102.577 -80.1659 -121.912)
(232.403 264.445 -418.839)
(144.914 207.343 -97.2773)
(-180.774 -67.4995 -64.9966)
(-114.662 135.633 -19.7563)
(33.0094 129.561 569.742)
(-58.5718 -92.6704 282.579)
(18.7789 -369.202 142.505)
(15.6338 117.288 126.317)
(-129.062 -27.8658 -358.61)
(71.3258 60.3132 -141.173)
(-161.995 212.322 11.323)
(-207.837 -147.755 -231.533)
(-239.077 279.119 -25.7068)
(-484.127 36.7357 110.937)
(-5.31862 -148.173 -4.47761)
(-127.295 -247.124 53.7471)
(-110.369 -187.137 -408.375)
(206.689 163.217 -138.142)
(40.4905 15.1861 61.0612)
(404.501 -302.49 -390.26)
(-22.274 69.4399 6.43319)
(-163.57 251.648 431.65)
(290.937 -8.09477 -103.337)
(-149.404 187.997 -296.513)
(-86.1739 45.1717 -101.532)
(-249.317 -261.251 266.492)
(-76.156 11.2958 102.952)
(185.883 50.9305 108.649)
(97.788 -38.4175 -14.4192)
(-210.771 126.485 382.112)
(490.74 -190.009 53.3059)
(-188.568 -71.6363 -178.843)
(-5.08696 43.6396 -1.90985)
(-46.4751 -254.176 -82.2816)
(148.154 346.44 115.084)
(159.463 215.114 -196.398)
(-267.483 -45.6394 -61.9346)
(268.726 -463.232 -1.1703)
(-296.611 106.419 -74.4549)
(196.331 84.069 262.15)
(439.152 -78.0323 -488.419)
(-55.9903 -34.1885 -60.4052)
(138.125 -212.715 -244.913)
(-136.099 -193.257 -126.674)
(-124.219 -129.131 -84.0185)
(40.0881 34.8269 25.9534)
(-30.7317 -150.317 158.581)
(-129.249 -183.563 -564.852)
(221.162 -44.4285 -10.2495)
(-47.161 -6.84378 265.54)
(153.286 -78.3816 -66.1922)
(-342.521 3.4934 219.914)
(-261.336 -15.2396 -56.4461)
(-394.387 -2.87751 -141.218)
(211.938 52.5151 536.425)
(227.967 19.5951 -18.9112)
(-229.251 -89.8025 -445.997)
(-230.286 -226.248 -260.744)
(316.277 34.498 385.125)
(131.644 41.9691 -149.054)
(159.478 -202.916 -163.762)
(-215.509 149.662 334.563)
(116.785 168.519 36.3638)
(-256.318 -243.755 133.696)
(-64.9278 -101.421 -264.215)
(107.095 -189.289 198.791)
(-46.2278 -159.056 -250.009)
(-16.6917 -180.107 75.0443)
(18.1801 -95.1094 91.5555)
(-150.564 202.678 -286.977)
(258.849 101.156 -244.54)
(-69.0152 397.456 552.242)
(312.53 -14.0801 -99.521)
(239.692 -39.1953 -13.5759)
(132.416 -223.527 4.73488)
(224.671 -208.536 92.1356)
(-233.731 87.6729 291.481)
(-202.412 667.726 112.11)
(-7.73723 -29.1007 -383.45)
(-51.9829 -281.643 -116.436)
(52.1219 31.5734 240.089)
(81.7087 124.931 -76.4552)
(114.388 -145.167 121.662)
(72.9098 -0.915314 -213.826)
(93.0452 93.3294 172.515)
(-3.53365 -57.9621 -12.3479)
(-67.6354 -172.06 46.5152)
(104.032 -141.583 327.976)
(147.616 112.222 -97.9999)
(-162.143 211.51 165.524)
(-224.27 12.1975 107.678)
(-193.061 -56.5856 101.102)
(-356.678 -369.905 78.9119)
(-101.04 -203.566 25.2344)
(174.8 192.667 -215.296)
(-120.144 388.88 213.306)
(-152.671 -59.7727 -36.5632)
(-278.232 196.146 380.937)
(9.34795 47.7643 -540.857)
(-275.375 -118.159 -224.371)
(-53.3824 -78.1419 244.915)
(-105.048 243.618 -507.484)
(75.6719 79.5148 138.134)
(-188.91 -355.361 -216.806)
(54.1451 195.539 12.1319)
(-317.93 59.4139 210.382)
(-23.4881 -139.455 453.107)
(161.715 268.533 83.1012)
(344.413 -191.388 11.458)
(116.093 163.866 259.606)
(244.813 -239.067 141.915)
(-118.343 -87.5961 128.112)
(107.707 -36.1003 -28.7104)
(242.259 -51.3607 -32.6094)
(99.5927 76.5408 311.151)
(-1.86889 -38.6134 32.2912)
(51.2669 26.927 -94.2834)
(-219.119 54.6302 246.451)
(-159.601 2.46593 -54.9998)
(-102.679 -185.351 -51.4506)
(-13.9046 376.103 245.806)
(-5.18534 -343.09 173.601)
(-202.401 130.051 -159.097)
(-217.935 -213.467 -189.151)
(220.87 168.008 -89.8036)
(-19.1004 -141.082 65.8932)
(-87.6406 415.089 303.149)
(37.0801 -1.9251 117.575)
(3.18188 -202.308 108.674)
(349.143 -67.7728 -181.284)
(102.861 250.213 346.49)
(211.234 93.9479 -163.188)
(7.1437 90.3182 -224.233)
(505.972 167.201 191.607)
(-292.396 24.2519 -205.56)
(36.0897 130.732 -206.707)
(-252.458 209.149 -114.04)
(275.856 354.695 25.9626)
(211.856 164.786 -261.385)
(99.4521 -64.4586 269.965)
(444.5 -14.6315 -407.147)
(-128.132 -110.555 111.497)
(-54.9852 -29.1466 273.013)
(-260.621 146.518 360.068)
(297.986 22.0631 130.885)
(200.26 -336.113 -166.297)
(338.023 249.956 -235.24)
(61.3939 -172.784 254.883)
(116.465 -203.111 -175.147)
(62.7883 28.0513 163.843)
(315.972 -315.543 -115.278)
(112.598 -4.69607 97.6676)
(294.047 94.423 -215.584)
(97.3399 -133.901 -83.3405)
(-147.526 107.7 225.931)
(-15.1432 81.9703 6.03261)
(99.6971 -72.5318 -328.054)
(-505.511 10.0967 371.49)
(438.414 198.641 206.128)
(-16.7692 307.884 -331.634)
(10.5962 -101.1 76.3768)
(18.1394 -16.2025 -91.612)
(37.0855 377.624 196.607)
(213.728 252.66 -40.9138)
(150.461 256.659 -121.826)
(166.806 419.726 377.222)
(-346.344 80.7704 589.941)
(-249.342 -28.1629 -60.1851)
(-108.647 221.692 96.9692)
(-46.251 227.747 -227.937)
(38.7217 14.6126 271.777)
(-125.179 245.383 -13.1174)
(3.51732 -427.77 106.217)
(89.1254 197.011 -214.279)
(-46.4548 11.217 -56.5323)
(466.192 294.465 -160.553)
(235.717 -150.285 0.455372)
(-78.6411 -167.575 -236.11)
(13.7341 171.787 332.18)
(-206.525 19.7832 -121.651)
(107.382 -60.0757 157.984)
(83.5408 -98.3764 -122.414)
(-363.324 85.6275 447.8)
(185.411 -51.8288 -63.735)
(63.6744 16.262 -214.349)
(-143.105 -152.102 -228.561)
(-295.67 -216.234 178.858)
(44.3258 4.77258 -15.9877)
(-8.45703 116.343 -1.19181)
(43.9158 -23.0465 -136.528)
(25.0776 -368.486 75.3049)
(-193.123 -92.7581 -357.242)
(-60.4277 248.382 -150.347)
(-248.658 -269.562 -11.1326)
(47.6095 166.439 188.564)
(212.501 344.998 163.347)
(-46.4238 -298.193 206.517)
(210.057 50.6358 -348.014)
(-324.64 309.477 215.277)
(-227.709 -136.858 99.6414)
(122.671 -247.661 -182.79)
(102.689 -114.897 517.169)
(34.1555 -107.873 50.6928)
(468.596 -245.955 80.8463)
(-484.061 184.51 -266.225)
(246.944 52.1675 -203.107)
(307.314 -57.534 183.148)
(160.945 228.844 -63.2892)
(-90.7375 293.546 243.301)
(-332.352 142.083 217.254)
(-69.1893 179.65 -37.8123)
(286.482 63.6595 120.084)
(-116.955 -16.4854 -269.576)
(-61.3007 412.223 -136.455)
(64.6906 85.4058 0.48161)
(121.147 -131.734 -393.427)
(190.11 72.2894 -119.138)
(-154.282 37.7792 30.0777)
(-188.151 116.677 -233.654)
(-214.88 -111.633 37.5655)
(37.2103 -28.1456 96.1884)
(83.5891 -154.03 275.414)
(-57.992 -151.977 137.315)
(26.1325 80.7905 -349.908)
(55.0744 -160.056 520.275)
(53.1525 -168.194 60.2482)
(-321.731 -1.5896 112.654)
(74.5125 -528.241 148.953)
(-35.5208 -165.629 -120.419)
(33.2967 -304.637 6.76144)
(75.6871 -408.365 -593.614)
(131.051 -144.748 -60.9649)
(-2.18494 67.7182 91.7325)
(218.56 19.3835 235.671)
(148.783 -13.3109 -361.347)
(96.3507 -313.25 149.641)
(-351.569 21.6964 232.672)
(-168.515 -264.986 20.4228)
(-25.724 126.032 -46.8357)
(195.493 -170.049 132.006)
(-178.51 175.912 29.9495)
(-2.61026 -144.82 29.6475)
(129.68 71.0282 175.767)
(-134.868 -46.1689 -83.43)
(-45.091 121.321 41.1145)
(-373.864 18.6936 -47.3916)
(40.4601 -88.2543 -67.2171)
(-317.228 389.865 -184.628)
(-15.6185 181.025 89.5591)
(-151.846 263.321 145.566)
(-450.592 245.897 89.6204)
(152.528 291.142 318.743)
(-56.5197 362.55 36.7723)
(137.665 -280.537 186.565)
(373.389 35.2467 -492.347)
(-207.742 236.872 -239.288)
(-102.908 -101.053 -178.285)
(268.203 -135.456 66.2702)
(-51.7777 -166.728 59.6224)
(-352.953 114.126 -322.089)
(-22.5848 219.18 -29.881)
(47.2365 -151.865 346.493)
(-731.63 -89.6675 -67.4032)
(58.6914 -139.487 -218.646)
(-2.47326 -161.795 538.499)
(-10.0908 -151.227 -390.718)
(-101.85 129.675 26.9119)
(220.497 -304.648 214.197)
(-171.501 130.757 -98.9387)
(-171.417 -430.087 6.59606)
(353.74 104.224 -190.642)
(92.1872 -106.948 -256.353)
(432.135 24.898 -108.079)
(22.0126 209.271 -95.0655)
(-297.044 354.605 -285.572)
(-118.117 429.145 -156.708)
(99.0106 -154.127 64.0514)
(371.939 -281.04 -123.48)
(28.694 -292.25 97.4088)
(186.709 202.6 -8.18262)
(-374.445 -235.628 50.8208)
(-170.684 -21.7348 -302.395)
(-272.759 -387.749 -28.5528)
(79.233 185.141 -257.789)
(-268.333 -174.138 14.561)
(-139.282 0.504859 290.934)
(-117.319 62.0605 -152.289)
(-42.1765 -85.9259 306.185)
(350.326 -100.422 -32.0871)
(-321.581 -11.3209 -109.103)
(-217.351 -195.123 110.646)
(-123.024 -173.74 88.3963)
(323.552 128.216 232.636)
(280.687 72.9603 -23.5507)
(18.7234 260.772 -376.331)
(318.546 306.857 -56.6355)
(416.109 215.091 -330.323)
(40.8098 -48.726 -131.881)
(226.892 -5.44426 -250.617)
(409.263 244.916 -13.5142)
(45.9364 -439.904 -367.827)
(246.473 -177.397 330.032)
(-32.9856 281.684 336.843)
(-97.0148 86.3017 99.7378)
(-11.7006 -234.943 -125.952)
(-21.3951 -37.1041 226.559)
(-122.888 165.176 -165.056)
(-105.164 260.353 -27.4511)
(235.45 27.4504 -623.572)
(140.746 295.484 -184.62)
(-491.929 436.92 447.009)
(185.394 257.686 118.049)
(210.705 355.071 287.386)
(-92.3476 247.171 -13.7559)
(74.566 -34.93 267.871)
(190.116 -27.2738 -178.84)
(116.798 -24.6564 -153.751)
(-68.4898 133.2 122.388)
(369.067 -156.684 -64.6933)
(178.473 -9.41744 132.65)
(110.508 -252.308 246.457)
(-117.206 419.4 175.02)
(36.6046 279.44 330.719)
(198.885 -273.31 100.652)
(-149.547 -139.416 241.74)
(-21.1588 185.377 -246.876)
(-165.456 12.4269 -85.6602)
(-162.113 -19.904 36.4753)
(-154.692 12.5849 16.6603)
(-330.546 -41.0918 211.991)
(128.961 22.1345 -319.395)
(-183.922 -50.1978 -293.864)
(92.6262 -372.896 -44.6389)
(272.402 43.1784 -63.3015)
(115.644 -315.63 185.371)
(169.094 -243.941 120.024)
(-119.918 -307.798 -393.652)
(55.2636 -162.715 484.797)
(-41.6681 -50.097 -3.27379)
(71.0301 -402.535 -149.485)
(-115.632 -284.784 136.038)
(192.717 -433.195 206.526)
(-457.331 9.02744 19.5995)
(-72.1717 -34.094 17.0567)
(114.512 -25.1858 247.754)
(61.476 69.952 4.24584)
(-460.912 347.043 113.822)
(121.719 -542.241 324.446)
(217.631 339.096 71.7969)
(117.767 37.1227 -72.4795)
(-95.4488 145.705 257.721)
(-271.745 4.738 -51.3529)
(38.7302 235.014 113.008)
(-147.637 408.511 -270.911)
(355.112 -350.872 -23.5071)
(-424.654 65.2364 -81.4614)
(-159.748 207.304 -92.8902)
(63.7422 -105.454 -139.93)
(70.231 60.3821 -130.004)
(83.4064 -66.8787 -162.05)
(100.208 -379.948 -126.963)
(103.259 332.242 -76.5938)
(-88.6524 211.072 83.12)
(-347.643 379.133 383.445)
(-75.8613 -67.5958 128.755)
(9.00723 -86.8764 -245.297)
(-215.467 -38.0606 82.7462)
(305.343 154.674 -106.698)
(-282.706 10.717 -171.613)
(160.842 185.425 37.3295)
(-498.708 118.175 70.8721)
(101.018 -188.193 -113.268)
(-25.3845 -110.037 48.5923)
(-590.082 -188.89 -13.7621)
(-46.6473 26.309 -114.265)
(-278.361 152.746 33.865)
(289.32 -256.959 -90.5741)
(-514.308 178.794 482.051)
(136.95 177.955 -58.7891)
(-152.928 -181.305 -72.5275)
(275.423 -572.7 -161.525)
(209.303 -5.9947 80.3288)
(344.933 -341.143 -269.54)
(210.035 -244.316 -403.654)
(-65.3553 -261.96 76.3353)
(345.358 1.27222 -142.918)
(229.063 252.363 110.058)
(214.615 -241.704 -164.724)
(219.223 27.3382 -141.929)
(209.234 -241.364 219.743)
(184.333 -113.431 -484.661)
(250.055 -221.858 179.225)
(331.56 -195.788 -113.87)
(115.97 -179.111 -293.098)
(177.664 25.9295 163.495)
(114.19 -184.269 -38.9777)
(129.696 198.903 -31.7041)
(-58.5311 -200.195 -310.786)
(168.824 -465.227 -57.7613)
(241.565 -276.322 -32.906)
(246.291 -257.52 -126.044)
(-33.8417 -284.619 345.488)
(218.977 -195.038 78.5865)
(-19.4945 -22.4576 -21.9033)
(235.215 -267.923 422.82)
(117.925 126.064 293.313)
(199.043 279.533 -73.1266)
(-34.1278 -365.245 -223.186)
(480.355 421.435 -85.9474)
(-154.119 75.5599 169.125)
(-352.449 -14.7082 -155.332)
(-58.811 136.552 221.07)
(-173.812 -177.449 -235.911)
(-59.4535 31.0198 -21.0609)
(65.945 142.706 -182.721)
(-38.784 97.1462 93.5453)
(-108.754 -277.416 -278.752)
(340.832 75.2567 -1.18413)
(288.956 -93.1932 24.8816)
(-190.659 -81.698 109.096)
(402.968 110.553 -38.874)
(193.02 -195.484 62.5872)
(101.794 -316.766 -165.026)
(-231.362 269.43 -93.6054)
(-59.8646 -18.3838 -204.9)
(142.524 323.756 20.7219)
(264.195 -18.9875 -225.632)
(-10.9997 193.99 -161.872)
(277.11 -361.311 -153.588)
(210.357 163.116 -76.9241)
(-18.3424 -76.2782 150.168)
(-205.862 314.928 -126.699)
(-141.571 -35.1994 -312.92)
(128.035 -46.8876 -139.217)
(-124.194 -301.892 -61.7957)
(56.7464 267.129 254.873)
(379.635 -258.88 192.152)
(-18.1553 124.684 -120.597)
(54.9623 -111.842 4.48675)
(21.9512 -198.702 198.595)
(-240.547 -16.9862 281.244)
(37.892 281.701 251.655)
(-13.3146 -3.06124 375.341)
(25.923 -119.087 91.0001)
(-280.326 345.63 53.2438)
(-269.71 -46.1544 -204.946)
(-56.7392 158.264 11.2243)
(-142.291 70.2397 -17.5178)
(-185.521 -231.234 -259.731)
(154.309 39.5997 171.879)
(44.515 148.082 -488.263)
(-77.9558 -150.623 70.4913)
(-402.37 264.576 83.0455)
(-153.572 -472.014 -1.60077)
(-28.4627 -155.328 -155.727)
(53.8459 362.814 -40.0201)
(-213.81 -234.669 244.361)
(-95.9181 49.0909 109.542)
(-217.602 230.757 -183.965)
(564.246 -309.701 299.614)
(-214.633 12.5261 -251.732)
(-278.845 -92.5235 -231.645)
(-60.8461 120.441 27.0503)
(189.746 -95.7 163.296)
(320.19 200.02 -103.607)
(159.62 -82.044 331.339)
(99.9704 -77.5096 -38.2076)
(-290.515 -35.0326 81.2741)
(-306.271 191.377 -232.852)
(88.4523 -188.255 117.9)
(-25.2338 174.836 89.2944)
(290.116 138.895 -26.596)
(28.886 117.244 -497.991)
(65.4116 -135.308 -35.6291)
(-296.515 246.321 -235.555)
(-177.472 341.796 44.3025)
(-134.362 384.672 -128.819)
(-347.844 -222.209 -50.3405)
(372.678 65.4071 -293.682)
(483.185 -171.269 162.638)
(222.765 441.97 391.557)
(85.728 -156.061 197.288)
(0.711838 469.093 -186.4)
(11.9363 119.825 -106.448)
(-8.05184 -72.6059 209.126)
(251.177 -137.909 -221.899)
(352.833 -457.254 -106.955)
(128.889 -464.183 -5.77229)
(35.5735 411.13 235.949)
(198.828 222.89 40.6427)
(167.965 -105.269 -205.535)
(-142.153 -69.5246 17.8526)
(-268.705 224.531 97.2025)
(321.824 -74.967 -188.754)
(170.042 -175.472 125.897)
(126.737 -139.485 -47.4172)
(-104.492 253.955 38.4043)
(103.392 65.2429 138.001)
(-220.484 -211.016 -126.217)
(-8.903 78.1474 -421.322)
(15.8965 -143.519 501.059)
(224.339 -197.402 339.509)
(-88.6269 52.383 245.12)
(179.708 438.843 -175.474)
(-546.512 99.2731 306.194)
(-599.782 64.6033 -45.0791)
(-36.306 131.495 -334.164)
(285.504 -50.1923 -387.721)
(-32.4972 -269.745 -5.81616)
(-37.0898 91.0006 41.2089)
(372.445 12.7619 217.573)
(19.9514 -127.426 88.0698)
(-520.532 59.6966 -231.543)
(34.7707 35.6624 -50.3483)
(117.737 -41.4037 141.09)
(-470.501 198.921 190.961)
(-208.638 -279.597 156.021)
(-32.6 186.603 -230.03)
(458.235 -54.382 -118.019)
(133.617 -279.545 58.4831)
(-165.382 -230.502 -231.679)
(35.7944 152.758 68.0304)
(54.5177 -131.512 235.068)
(291.392 170.532 179.304)
(149.334 62.9924 127.369)
(70.1343 230.106 -95.821)
(129.615 -48.3606 165.832)
(41.9961 -45.7281 -271.898)
(120.028 68.0292 133.892)
(-294.859 141.433 128.803)
(-130.865 -342.112 -229.702)
(203.45 -388.801 59.9939)
(-307.463 -538.862 192.331)
(-24.2902 -67.3066 -42.1258)
(127.211 -93.6174 25.7979)
(51.2054 -135.001 290.602)
(22.967 -455.176 -43.2172)
(389.43 186.998 186.822)
(-136.733 249.571 -64.6993)
(190.744 -30.0482 -175.18)
(126.161 -1.79885 53.1837)
(-58.4751 58.4412 57.7882)
(-369.931 -140.372 -521.358)
(-73.9432 -184.999 188.425)
(110.58 -186.002 76.0715)
(-392.284 368.723 -153.194)
(39.6844 -180.72 70.0619)
(314.829 109.45 1.99855)
(-164.476 -51.7384 427.82)
(1.04111 78.7732 -328.266)
(-70.6863 -168.303 -30.808)
(86.4208 -103.585 90.5397)
(231.967 57.9298 -135.284)
(172.284 -74.5742 69.6566)
(-26.0297 355.791 227.35)
(-57.5743 -35.6243 -177.787)
(108.512 -24.6647 447.639)
(-257.155 -48.8642 196.962)
(69.3346 2.57618 -58.3607)
(379.344 90.2885 128.034)
(53.5642 191.955 84.9616)
(152.46 2.91209 422.11)
(-169.856 -1.42239 -296.663)
(245.898 298.999 244.823)
(81.6245 39.9311 282.728)
(23.7862 -41.4665 -61.3487)
(-18.3225 33.6128 -139.871)
(-314.734 -103.483 224.18)
(107.754 123.157 442.928)
(-194.971 -107.073 -271.175)
(220.53 -146.293 -249.595)
(125.263 -3.84766 174.582)
(-132.906 12.4135 -97.5098)
(61.1779 73.2822 -177.215)
(-540.78 29.3978 307.504)
(-84.7407 -20.0512 -116.865)