/*--------------------------------*- C++ -*----------------------------------*\
  =========                 |
  \\      /  F ield         | OpenFOAM: The Open Source CFD Toolbox
   \\    /   O peration     | Website:  https://openfoam.org
    \\  /    A nd           | Version:  7
     \\/     M anipulation  |
\*---------------------------------------------------------------------------*/
FoamFile
{
    version     2.0;
    format      ascii;
    class       vectorField;
    location    "0/lagrangian/dsmc";
    object      U;
}
// * * * * * * * * * * * * * * * * * * * * * * * * * * * * * * * * * * * * * //


3043
(
(420.210737846219 114.509945179219 136.146968845413)
(-78.0820515578111 -76.9022587715046 -627.340729666391)
(696.383738647597 67.1392210430331 -115.476793681114)
(-339.848076401611 -371.223187917376 -467.107040668701)
(-230.403436290029 412.965215798663 257.482182794249)
(-650.934277260336 172.213981284158 286.145417797834)
(-718.80156670266 332.932171760789 242.81581292588)
(109.633606142669 445.776506753495 -202.344011586667)
(-118.439332877204 98.3029160320168 -383.448950481935)
(55.4546544306887 -585.305517462448 -307.142789234551)
(37.8041120723683 283.525506221429 -201.616311474263)
(-300.079302293945 -8.89802730511234 271.370336599517)
(-150.449500122389 -69.8918974612685 217.525731853941)
(146.404881245002 -144.736538407176 -434.229086742398)
(110.833255593007 -307.9328463758 170.318137071166)
(-415.177812967278 131.121433791547 106.421844926631)
(143.616281509034 111.820595875208 34.2757786972497)
(117.018847073608 -245.643144786313 280.215744533987)
(-337.438155089261 22.4499211738263 179.260488671242)
(-101.086295385935 -455.58405715365 -56.0391973725393)
(-437.886123539072 -517.764634255822 -466.624792928957)
(715.966659998426 62.4335786944016 -5.02155017277718)
(217.234494965134 267.156695791855 -189.178250214558)
(176.67032152728 -401.6924291006 -116.693991778483)
(133.619319625066 3.64400850180205 323.093199007154)
(71.4396119771712 -31.1790971966499 -495.264840487453)
(-55.4750609526898 671.664999099825 154.782055550958)
(330.827681124597 -142.830245312067 -66.072706173026)
(-88.4298137650361 429.990236535281 11.9642662192188)
(-255.251516404484 265.694704634816 464.27397211738)
(465.215394303558 -440.19013502624 -89.0276119814371)
(71.4578825255889 301.082023682725 -372.386078760237)
(-425.02140791138 -105.543066789558 -68.3094703431318)
(-374.709465048123 -260.743339489604 -187.29303982076)
(-8.71406837166766 -203.030872260472 -207.18865283264)
(-289.616617038222 231.921116418129 -129.152272722699)
(-540.347221443264 -10.563066964692 -318.909653194095)
(419.766502257265 -794.678481025051 278.021030489828)
(-115.432620386474 -163.027404783028 164.064204901596)
(-114.253869772042 58.4822216854547 -394.162425998968)
(-31.1300799270765 -124.613519156364 49.5116081225243)
(168.596289824772 541.787388284291 63.1722193267163)
(-291.178948696647 148.628916619465 -204.158718707468)
(-377.991158607368 -219.586188974434 474.994579310786)
(234.381178456395 330.386625386416 -624.558310716079)
(42.6145147842107 -641.712996199238 -308.224912740247)
(-40.4678434307805 98.1403646119748 -275.445602373242)
(-11.1818461539862 -145.915106280999 -538.066715380623)
(263.178063623327 171.033103504253 -366.511945323858)
(15.3658466517194 590.087736132758 -73.6160443268942)
(-223.119899286072 -335.208159500846 41.2055682546376)
(-425.672241497611 278.974602795571 359.787824287143)
(-77.5854626745984 -102.374575962993 221.628765769609)
(-189.30042039966 -61.8318448735976 156.261302002535)
(139.752723805033 -425.999496710467 176.362922895982)
(118.556953724124 -124.114025839712 -40.2030361784378)
(367.178872303961 -139.499512196594 414.926959450536)
(178.276278949575 -21.1981847395288 506.005913937367)
(-291.839942851704 -154.169435246628 312.609658711035)
(-138.608735211234 45.6758575492681 372.856660926309)
(-240.239498365184 320.99941883644 -413.592487262624)
(7.47916850952277 -26.0218593213529 16.3501079389329)
(-294.88522412315 -41.6674875552465 -149.136270935206)
(-143.889893749116 -33.9220771272258 -336.489280963031)
(-675.918346928685 236.229533887549 -231.011728251157)
(-416.822687035832 -302.968837204078 182.73017382695)
(387.087877935536 -684.422001887789 269.73543876296)
(192.654622164174 -91.6444445055252 58.753895627111)
(-498.312483248615 145.301079845504 -175.282633687058)
(-126.721270182938 394.702413656258 -338.652025951286)
(-463.265663614451 113.088942371527 -59.9037845048629)
(406.401117071079 222.525416598193 240.08992630027)
(-391.045493801655 -201.354738771718 502.932541870615)
(-156.796056064399 -173.729797596343 118.82597750187)
(-232.855186799458 83.5419459067195 -555.12483987025)
(-351.506491974112 0.680872899534712 184.012185968674)
(-89.4047382640839 119.119160016312 -105.633538357724)
(289.615670061005 229.494210496802 -84.5050860892597)
(-312.679944372483 438.598712973451 -86.5880746534511)
(-77.4873299795782 318.0586208301 647.804393241104)
(311.241991994374 338.592218080032 463.388540586499)
(444.169833490979 35.1410006698176 147.396305898706)
(-55.5024688870892 -189.716113352204 235.54205724074)
(-472.655137482014 -324.492561354209 -324.637331932455)
(328.096094892655 457.800335652179 -29.3718584417618)
(-243.388616084182 -478.47024166802 283.737329139308)
(-191.931742011374 -701.960139813122 44.2287955745768)
(137.627837400043 -106.464018673264 8.66724075386068)
(-390.61448978134 -331.841764042566 -238.369457761181)
(-227.260127331366 -61.6739085795326 -451.252963541933)
(2.42513617400056 -136.299215509437 229.251873872334)
(389.286970165436 537.282518897002 477.316006600398)
(404.826792573357 -21.5275497109513 -52.4806059715137)
(-258.6755193723 221.463090637886 84.504903061396)
(-88.914782373125 565.999573029239 -124.520405335705)
(-22.9416837550498 -88.2939680637562 -115.23682345774)
(284.378502454188 -24.6153153047244 160.954719396509)
(-176.193617834877 12.5183806800272 0.480589821725085)
(205.336197263758 177.861297525584 -422.686655166772)
(79.0056595010668 406.138188443871 122.161111799388)
(184.723471775888 529.374852094035 554.772095704606)
(-521.668469182669 659.216115080912 113.44364027393)
(-142.050364876596 261.971889701581 -186.797598233302)
(131.751578976416 599.733877769392 -152.089075456386)
(646.705319915685 160.77447040105 210.599047459307)
(-84.6215051667447 -108.063064473688 -107.947705254754)
(-527.336279802762 -393.587856689674 -105.640270990426)
(146.259499802517 -349.629432278499 263.258245692515)
(-114.484705085671 -144.637367695946 -207.666056648909)
(38.3683889076602 -208.642312415969 614.364190785224)
(-57.2964798175408 180.308374950433 -52.0062864022439)
(-289.937083776828 -57.3895798582391 92.2934703788773)
(-348.770542562207 -116.739664156545 -54.2015904784825)
(-40.940977259331 176.220711289758 -177.585595066328)
(-195.212563014606 -205.90499313886 193.073087617667)
(252.713059888547 225.676883708931 -230.977195269104)
(83.1704771194065 161.289261290669 -216.79232397626)
(19.5874389411392 -230.817879960889 -387.731378975143)
(196.384726505079 -3.01716784960881 -12.7150641021755)
(-249.838494544326 -109.907009213759 259.45408217951)
(175.983211371624 -154.590777190956 -273.767409400854)
(266.348538696611 95.6002459192431 57.1949667321959)
(389.39903324319 160.63797313208 430.073063140151)
(144.176723385192 118.142701787148 388.004053785789)
(-233.833817127417 -620.460630361575 54.7537603388371)
(-155.73239216463 346.990030793072 48.753342680315)
(-107.319150529914 -28.2165179383991 61.7457003896689)
(43.4409005346212 318.694546643064 194.867395253937)
(-187.924194412536 655.426254907531 -460.524624559661)
(-772.592883363269 -304.589666456585 -221.651806505858)
(-224.295090185631 190.169747667528 -161.945403205479)
(-180.476595824769 -190.195849114395 -43.3548216791594)
(53.2990767696805 124.569382110757 263.050865240233)
(-94.8867341118384 29.9038560214497 646.649130146868)
(-30.5399499200651 475.382417137215 67.6769599070215)
(42.3229597213706 5.83366230188833 147.075768486251)
(1.63192879618354 -53.9259702485764 444.27883706819)
(-83.8708482391718 -289.297325140931 -157.064374431935)
(-161.735441439435 -25.5215767399673 -33.3247231693472)
(185.423168850027 64.358823684521 -45.4932217876546)
(71.4653554488304 -239.371444245322 -9.85943743184786)
(219.031593136956 27.2243984496934 -92.453072746582)
(-66.052274407015 -552.027334166498 35.7583608205505)
(55.4359679318939 -481.514392098767 34.4326119028661)
(-253.78655583759 -117.806638500724 -391.507725830451)
(-290.78301540831 -213.408996230657 -121.386032036783)
(454.966024615536 -303.122976302974 -63.3414920184739)
(-278.514086983549 183.827464379188 71.3784076633967)
(265.887935390315 512.643869014882 -0.194691413818566)
(-465.072455734785 84.0495905545783 179.318263311739)
(14.7266973174069 25.9419579870237 -90.7974614364871)
(-297.970684699002 -240.851339567321 163.741581738688)
(384.102113515086 66.2176886758315 -412.148903348159)
(-253.083657730308 618.514208870467 -45.4004003538117)
(-83.4865969995271 12.6055409419001 244.698066377104)
(-343.051974288505 272.568070512357 -173.225813190438)
(451.737925025239 18.6619728244957 10.7651325774536)
(-540.467190203105 125.20285796123 161.773394707517)
(524.897495920366 -236.281055627586 626.37017399902)
(274.454865311998 136.543037930896 7.40066063977969)
(165.010697386732 144.523300453086 338.562817417317)
(-192.963406903344 -272.178542507042 266.166866007986)
(-137.292676800662 -315.563762056606 -136.670134734591)
(376.974835819174 108.904295799898 61.7714592518234)
(372.944955274278 280.133566334499 320.794017998218)
(62.0980452104663 -266.118856707488 63.6495126163337)
(-477.42139958189 -225.921854380989 -308.510186144725)
(-718.894333404721 -302.737431641286 -189.989750910566)
(-233.6874860671 -145.099011256781 646.164209389737)
(378.048081315992 -117.290323901972 -658.552633303975)
(75.7933511050008 -1.05087457749069 -102.976641600925)
(-225.639961726239 521.871032042597 180.594051131626)
(222.291920984539 -156.309987351632 -121.407646728267)
(-84.5100799450984 2.26319071163207 -113.390471715317)
(317.777647236157 -27.6846711292658 -261.529835217804)
(26.8924142708497 -480.800451667428 485.7232960352)
(-453.733252891307 369.663160416974 64.8214722526978)
(38.4276281787646 90.2843218361366 270.319037358271)
(-275.270314757831 -374.528044827964 304.942957444224)
(50.8209430185198 447.997457086292 32.1934847894993)
(185.484692352173 -76.2190104760695 -102.749060230086)
(363.793083029745 -833.04136221853 144.223582481311)
(179.58528893958 -104.688498124118 -230.940654549956)
(-403.187357834039 94.3832143547447 -82.3564622932864)
(-90.8016557121394 284.794890629955 553.129040958344)
(-34.6704447025816 -248.047856876384 -210.449005001874)
(-67.2525695754259 43.7996497725573 -94.5065635666756)
(362.58773016552 -4.72400729888879 211.814185721244)
(-176.604805725878 -172.427405199112 -197.932913726503)
(362.657218858582 66.7565430058257 -23.8477975204351)
(264.054941973282 -716.544848055709 33.8650731870893)
(303.399156288674 451.524594441377 -227.207009504698)
(324.990300100485 181.780442154096 310.396149570992)
(223.559202820577 188.166103784123 323.429367905686)
(160.725139380176 410.102738909282 -0.232618619090458)
(-90.1533154805909 202.894635796704 -194.785387077399)
(-6.91564643687197 82.1816703215794 -439.828543379124)
(150.936810201956 -379.866880284389 -48.9043379304434)
(-155.743565545167 158.580910655029 -917.21239222896)
(43.3338661910557 -63.5838043503113 39.1031808835096)
(-39.4635846570728 -230.590140175756 -268.521448472936)
(299.150850444766 -228.499324272964 -134.520465989788)
(-315.176348241053 290.515841105148 -12.4465968665705)
(-293.634417765964 284.643281320502 -318.396679123461)
(339.654881085347 512.44001176457 342.237075321428)
(125.179014104464 414.696364087525 -248.23841042591)
(-233.008175200265 166.994591714254 46.2087880249402)
(-124.452870622979 13.6624579528402 -220.15297852693)
(426.98812182911 315.385347731657 -189.413769514787)
(463.735284788853 803.846273541425 370.099752612812)
(-75.1784979785495 45.6056940921166 -468.155015466947)
(-158.171910514467 261.520377367731 187.02021569305)
(112.830258529834 -637.036048128559 461.884313063766)
(-75.5985117005352 -558.322419492342 262.532490292821)
(167.086132677346 49.6521972285288 -6.18398375776305)
(-266.780626771916 158.01408071229 -217.671889032387)
(-477.578744929956 138.797257179826 -141.795409807261)
(-367.106337768109 -518.328300719261 341.989469231222)
(27.5395217494114 -352.472527263888 140.586005793734)
(-724.918869040882 -468.458564695102 -375.355835720906)
(81.1789016716448 -339.327252545859 228.726310711945)
(403.074719568437 199.953023714343 42.5822882821472)
(355.156628920944 40.0820895577223 -251.77987418424)
(-415.688961922287 270.444088445821 108.085095035679)
(-204.06995576995 -169.297447150219 106.86892835644)
(-363.217854945628 205.736092905875 3.6210597669041)
(-424.259787524936 323.3206381737 -73.686892044573)
(-55.3309812202675 -29.6221350252424 64.2638450999569)
(-246.098941709476 -80.8363146318883 240.96565804439)
(-22.126762837454 -324.840177881243 336.81383789913)
(-235.381854549621 304.775543382363 108.714248151759)
(-369.652588961167 -324.337464829009 293.015698331654)
(-218.326912835158 292.708017406043 109.703918987083)
(324.1113956869 -332.26160952066 365.786360189247)
(-111.896780778184 -172.245771521194 658.280370105289)
(-26.3920070019594 -136.088766614722 -144.291823479618)
(-121.427217153645 -263.426300908941 125.869418132421)
(183.000405415314 -25.9803528174401 110.915343287588)
(-70.1416577145021 -435.338212172064 -50.9904098171185)
(275.214768353364 -288.926409247322 -38.0770204648471)
(-73.4133330817423 252.978967941628 -426.32878064749)
(-396.747487692409 -849.039296844737 285.686150868794)
(-134.390949193396 -328.815879731055 214.633320356033)
(209.352818655785 468.509023775252 -452.248733349463)
(9.97109093465886 -4.2330271556501 -35.6304580778464)
(-374.149414469751 -266.184836128964 -201.383088418995)
(34.515351219646 -355.097140412941 668.141683515974)
(-61.5104372600717 -68.5779814914055 11.9176433071454)
(-208.331086372875 -277.755642991591 229.082832959317)
(157.142112593591 687.110082215925 239.988234126403)
(-36.6776760421137 -392.010498073409 -115.274241586788)
(-229.778004408869 -61.0205827591339 -31.8369668190342)
(226.250622828475 -188.515940314597 113.785746003503)
(-34.4518245888256 -75.4315510273788 -166.74288120982)
(289.415265421752 -82.9489104323643 143.711263616947)
(503.336366797694 -71.0479648469906 92.1713467947497)
(-427.062610253394 -36.4555680569646 119.963529255165)
(-21.7883398549127 289.103981343977 213.251259739029)
(660.090682172769 -121.904621551614 -60.5444159061458)
(-570.692053499866 6.85491069781264 -103.87802169776)
(-475.368657521831 -168.881627636628 -549.80299788458)
(288.886537951346 -168.439760741216 101.929591608516)
(288.987273992935 -316.733499853271 279.637348369857)
(-777.052058282011 238.073676584025 721.955822834239)
(-126.606766192609 254.443156852643 498.832494987923)
(-175.639968803674 247.637129116784 525.334642086713)
(48.2700215128359 41.0430832088082 285.802098353311)
(516.357852472789 -0.336517535832593 -203.220404374766)
(-31.0499901683204 181.212829031119 246.343317426757)
(-105.509145003612 48.802182856575 67.8790841017656)
(557.562878642215 -579.077516347169 41.4690351265679)
(-104.516630150808 240.830767659277 -166.77019885254)
(-117.602364316269 373.420919364237 341.940257366806)
(301.924486397402 57.5962777055551 528.712286008922)
(287.045562403498 -280.829714823513 96.9739372562987)
(-2.54241598784173 -140.696412842455 175.074047659493)
(-135.740996718776 9.5525740949783 19.0742287306576)
(163.175912057464 -326.257939113201 -164.634180425962)
(9.86010872461572 743.625564541551 273.755069000821)
(-205.8828061225 275.609028865897 -67.6552916770238)
(-568.82889051321 -445.709191470942 -112.143756785904)
(330.202164184145 174.589026433681 317.399760741808)
(92.9825360578269 1182.2361879276 -107.725971745724)
(-21.6478323775757 -150.208772685327 -135.678392681807)
(47.5373478052489 379.725132168449 551.249835871862)
(-15.4040579669408 -704.5590528911 169.756088697495)
(264.579546521702 -56.6446851589315 193.162734627163)
(149.162500713009 -94.715928198725 448.27384114824)
(248.351920432447 -205.294851463554 -83.7164855876139)
(-284.073295612619 -118.887047083545 -332.94596613994)
(-751.194685858374 282.297887755437 355.092138977953)
(-34.0930934076261 -751.78232933566 -153.201688347749)
(-269.028826492706 -491.343116419479 396.374731797688)
(134.67089602493 423.774446852595 117.101921525014)
(44.4039631263704 22.1613288982081 115.821138888574)
(10.1159199667744 138.035275051108 -385.182638209131)
(-118.432193363352 -242.350857169619 450.423881407738)
(438.55121589184 136.912446637786 -50.6074121889264)
(58.8214408346586 201.45713269605 793.468578668524)
(-986.57430019509 245.368174896705 -180.221304084766)
(501.865657603479 -173.935006262324 253.981782596792)
(-667.418051109816 -193.206421278459 192.326427843963)
(60.518038935543 311.921992361224 12.7835945725461)
(-423.118857524092 -237.402808586671 185.832971206375)
(-368.914053939491 -196.223089859214 -209.919642624476)
(124.450406375027 307.188221601634 208.409918118694)
(-95.5980667693697 35.3789485996306 -147.095505597587)
(105.780093715489 -7.14730443428609 -372.081181404431)
(-180.172986834096 218.403923241112 -167.529817776152)
(337.909587579287 -312.076151116452 135.039201193726)
(65.8350633582639 -305.905284188702 -16.8583341353356)
(178.508540945309 571.217578019019 663.932380179705)
(-67.4925610889657 39.5138269107498 -184.917227510897)
(370.554356488892 277.958988583512 -375.415297653843)
(-55.0892575424285 321.637704502264 -395.158584537059)
(-62.8843273642 132.455513035066 -88.7283002146532)
(146.119487458144 180.972556733291 -613.354507122995)
(453.175721065566 245.627581142795 96.3331170405287)
(10.4186116018331 -31.801379038418 -199.377739964651)
(406.079812415102 229.38772156833 889.632008780322)
(154.872520543272 -39.1448954638118 -303.313582262464)
(22.3236767615844 -69.1936641009833 376.300606670004)
(-0.635785821903109 -549.200215071436 -161.274490007441)
(358.937229685982 54.3984851352386 -4.92974812260219)
(508.299001219778 228.629704765612 -14.6210772457933)
(140.948767516892 211.022680666794 -153.818602728838)
(52.7363441529056 -352.80100348187 -463.577244266572)
(381.653988531743 -136.734190169237 -621.135390563348)
(-167.843154954445 146.563664157238 178.419013488288)
(246.355640099457 419.90596023902 -345.02427759179)
(324.979265831853 -180.71686968072 393.984017128929)
(-1.3574753582486 -54.9810492493556 285.10693513774)
(-364.783149014544 -170.037089556816 -71.7820017476808)
(210.038110130731 51.4325088610798 -3.31522208303497)
(-299.554250734613 108.642731465463 260.688149044551)
(7.06336710674977 -118.409504316143 -197.651658808515)
(-360.692672417843 -85.7549929110558 904.195421792711)
(-708.089966266854 -99.4097006557216 -245.329526265031)
(215.439514118625 -101.000213841458 404.069648348391)
(-246.085609527521 112.553569172104 245.307178858324)
(287.436841453461 -581.607220151986 158.264848956533)
(-105.469228181622 414.050881685721 -388.175368337401)
(465.725379496625 447.01733635644 189.262883913032)
(-103.38582977947 -48.2845466981832 -126.129799255193)
(-9.3221373618282 158.407242065292 -141.700833069818)
(640.261420382559 -52.4284282571804 100.187207691425)
(140.500904528236 59.1791475086171 3.97967546885439)
(-250.228268611942 -67.6494389101893 235.113396025113)
(-326.111897189451 -53.4298256812915 -729.410236871665)
(472.943382431793 -122.890332607127 -46.47991451249)
(-530.634071687197 15.8614340285397 -203.318730211356)
(-264.839863293339 325.195641689335 57.0614137313322)
(-551.246222162326 118.52793568496 1006.15587021847)
(239.153639275173 -48.9183166695752 552.430795072386)
(-409.366500282402 94.5664802159487 635.241728309486)
(-157.601539710225 -119.506315643783 50.1001750073512)
(-218.423512561038 237.788893058494 173.532105403657)
(759.508201861207 -201.296743720575 292.870663859754)
(37.237716065997 -143.539580261768 69.6127910303664)
(-492.922622603901 -27.563131377999 43.2986414648419)
(213.826297526131 229.082424405366 -139.421200398284)
(-561.696061867262 -132.076164002104 -185.713074590823)
(-288.339982541634 263.934575717187 -545.50175990505)
(-165.27076955208 -327.4856646588 196.78041853266)
(508.221405476777 -127.974995323797 -479.348505373082)
(273.72461253222 195.47065109501 322.014989657172)
(-196.014519069187 -100.379695710058 352.082355988082)
(-128.963806542419 70.8711959746293 -110.648901126287)
(-27.4476058286166 -90.6741439187566 333.819116695507)
(-218.902739598329 273.043552602 109.971888641281)
(-460.811131858914 292.657126674427 -93.4318749322255)
(-44.6610829247533 -164.204650896904 -120.017480558843)
(241.838277724366 -245.442226766726 -161.226121235673)
(154.093902787772 -45.4729300188966 -29.7719718103943)
(74.3166578765391 -155.954848430264 -86.8278290069895)
(801.5032475727 216.791771372836 22.9591447426655)
(-301.939221465998 -371.397702212742 -216.120136284683)
(-330.772812264455 -42.7342362820504 -71.2083091587574)
(177.216490362746 -472.553081811078 -279.740032588467)
(-98.2217749279785 -382.360676761975 -309.03507641305)
(232.910543302719 -35.8331631897383 -629.198421124343)
(86.3807538608055 211.061946626792 -343.670770886175)
(-122.21050737352 -84.0555896364792 309.802778771672)
(144.244593581445 147.687860887198 111.997456009537)
(579.027076809954 -159.600563214169 -160.028994068914)
(71.1696606822236 -413.226916543307 208.731608845617)
(-227.439688036765 -682.024431809976 159.698901395445)
(-78.6846731919995 108.106314189759 -303.959136833801)
(-123.458056443962 -247.337405546126 -22.7278624360917)
(-5.84373014336024 488.315306169857 -187.946834090125)
(697.799992009952 -22.7120676744998 125.59479833959)
(280.129261911209 -93.9181121593304 61.7205153296095)
(367.340263224749 373.454088327479 760.897902185977)
(46.4331681241219 133.610222857223 -109.9774641097)
(-28.757650786764 -268.61891165587 106.486649555492)
(64.4684500632882 -334.274036872483 -603.272621153557)
(-43.1058598831047 241.440696087121 533.645470293821)
(-142.130263581694 -90.0020689826097 312.10044304008)
(266.457250161384 110.294361053988 103.883198515892)
(-419.722892932683 245.292118782906 148.092425686055)
(-85.1565866150497 161.95777715252 -279.874202179546)
(-682.417098130996 -48.0110368951158 76.6411988640854)
(1.49281378018845 -147.893337317817 -265.683890562066)
(-303.498305746502 -175.487486877489 291.774836423066)
(-63.7084957283605 197.224939459746 -119.920091367251)
(183.104133455623 -377.035367008961 -153.581180423589)
(-40.2501632159794 -501.832401595466 81.1533709437932)
(-108.233983456598 -535.328905498377 -446.337923935507)
(132.538420901565 -207.136995688 314.703719234766)
(438.132170710472 161.021765091957 365.181039872252)
(173.299195754275 -47.2689054823914 -93.6250542897132)
(-83.5622885342859 -58.5773182763688 214.662795846548)
(-539.080132058984 -298.685043221504 311.52087379978)
(668.43652187015 -336.504811502708 -713.93553454488)
(-544.562627912232 477.371134290488 341.846262469271)
(80.0281183772258 -344.277965310219 -50.4530906701278)
(543.08562038815 -671.887637682482 -238.587493570287)
(-87.785689225462 -320.306059425572 183.462763127838)
(162.302517125486 -433.44608367074 9.28695783073297)
(-376.154922703313 485.113755440265 -184.213026824495)
(58.3755124616013 190.933968167578 -73.8128951975117)
(195.457053402712 174.558751106485 -104.719407708982)
(-275.525187806702 -353.725350688222 147.771567716931)
(-10.6041863340578 63.2803169492501 -132.070231746752)
(69.4825460390748 306.747042961958 130.044691461233)
(515.866410312919 -584.743544013298 292.559837422185)
(-528.54823801719 -223.358836191151 564.222347105371)
(-8.49718985946902 50.8593220954295 336.378417430123)
(214.985587152759 166.391726248674 78.2895185487656)
(-111.714936566237 642.47189324605 20.4737797600296)
(98.5819345674736 150.841454813098 -337.217211452314)
(126.215627474526 78.4182124766356 -28.6141150127724)
(-311.765750631953 221.932874862603 -105.679211821396)
(-129.722250208399 126.483206061321 -330.705471417523)
(100.452833769144 57.5769778731291 -120.865136382267)
(-33.4641811204734 749.253860457826 110.891949751903)
(652.414497854987 230.629895028369 -107.164123662402)
(-110.48094220512 70.1144370493197 -41.9351509461261)
(230.752230710252 201.272889249687 -24.7012351168591)
(329.966101140881 694.549450128525 4.44252826957453)
(-557.423637762151 198.561659173194 459.828698154206)
(-198.700362940764 449.688728035331 462.645494496128)
(-511.229255207822 -202.605161856153 258.589134106123)
(1.91645582044048 74.9427849645453 -220.282105979875)
(-116.403278045481 -311.380603070378 325.451386517179)
(-363.764865637131 2.07149332488623 -123.462133252422)
(435.36248302175 172.892823497965 -154.214695188357)
(5.24770724273969 -301.139542599154 26.1092284428749)
(-33.4746603841715 51.1037756925478 -29.6125058400541)
(140.867707633095 217.704152144437 -198.902248872252)
(330.239885254554 -205.536049499466 227.547597558987)
(-185.258512025289 -933.845334916655 -72.0133323838893)
(-119.00886246858 -379.44186197375 -379.494293677643)
(-350.863783883389 500.041531738892 -207.940782352901)
(140.909133365718 385.855773398015 -145.587544217375)
(-464.531475844047 -585.342125383684 40.5752288913643)
(98.658113265261 174.286994358636 162.91851575968)
(159.844846783902 -83.0095162340941 73.9047185489303)
(-252.969821969116 202.380084796325 365.628065257301)
(-6.21111432578984 -22.6633105745894 -412.025776721736)
(138.435730365426 76.7896207700872 -114.283918727515)
(-108.922990726484 -215.045572694581 -275.537937852115)
(205.934167916691 -415.873279987982 -221.363084920283)
(-477.371384312878 -550.817351704874 46.8158687223537)
(80.9682185489631 146.869594561197 209.149850343787)
(220.140843125659 -30.6312750025369 -283.950256346382)
(-527.614369799412 533.593452991407 -279.158790551256)
(-100.734168308199 451.796454688496 642.627971751751)
(240.936975650843 98.6901979452877 -242.8497884455)
(171.64256805723 -109.333969749216 470.427230355975)
(-74.027397933808 -167.220935297245 -229.351241003108)
(780.962734318907 1.7192618318747 -468.775513780725)
(-158.593698765378 122.413195666706 191.247211654028)
(244.019178705138 -81.0401577065849 -203.971411054305)
(-520.839254181151 93.5915651135183 -244.679542861586)
(-148.469702551593 12.20053128094 -172.37279347963)
(782.652401140766 166.387418410716 -304.072705559842)
(-166.829453181164 -193.916689797914 205.504662108748)
(-131.183515949349 376.63984609606 457.184346483266)
(449.010172744701 -140.091696330697 -349.88502244965)
(175.009342247587 -351.272655418367 -165.100044296249)
(-287.084028921886 -457.010686287883 -337.453484337426)
(342.897318221823 -271.41699605059 -62.9722528789683)
(-210.919329290796 424.564152269823 166.045798089815)
(-100.315885848914 -173.313468953604 -213.926538113373)
(398.787185503136 -92.7834306756958 510.460028797244)
(-35.2001328799105 143.235515004249 -30.090509719849)
(208.994280003651 -28.1481472869326 6.97916222336005)
(-243.61724038648 374.459874377524 212.650900496125)
(210.533731149752 -244.123130661703 -21.748326147637)
(364.493947331125 -11.9183154122752 -441.919263927306)
(63.4494895174293 220.901214318775 -74.6568692658959)
(250.243028766177 253.666772894556 119.107819649649)
(-215.987182930465 436.94889015799 -107.080333568802)
(17.3903754376136 179.491223631736 -25.5525572132974)
(367.835451955942 -105.6100934662 744.961734715384)
(-389.414699363372 -109.120533228824 -157.735185812356)
(16.1517315966697 -347.272858847001 -155.666851286989)
(-38.6666270316513 -340.177095941091 -616.026307039473)
(-222.446140185945 -68.246975932225 -133.84780105329)
(98.1503984245274 -263.050758554751 267.921378286164)
(289.006237929523 -370.495113560025 348.441958070985)
(181.760792752766 154.492854451056 8.45383436864797)
(247.624320824985 341.67415491544 107.553374120821)
(-146.761510270769 263.13214667547 164.525727727477)
(-366.234113532772 762.426801414001 -194.860518314326)
(497.347531640588 -504.870568327276 203.135371949548)
(18.2898088601016 -8.40801252225872 70.0978149026738)
(106.513212733474 -33.9390910122434 75.0175776377622)
(-23.7174192442045 -56.921945396518 144.387916019161)
(-108.791429038967 382.992768969379 -319.338710493271)
(-62.9210001010819 -228.700135181516 -483.189748655337)
(-49.7904647932662 -435.134083252983 243.637948755182)
(-113.278241190134 280.871748426543 52.5914848561931)
(509.09547217099 -408.605306046125 -291.470220625327)
(129.877230272839 -50.8779538447237 136.050473153149)
(-113.674037592512 -440.710104950211 308.668236792956)
(66.7291476484457 -238.174989957726 -793.445148170224)
(-187.237932741996 -863.664544263266 435.031800688995)
(136.042763382168 -285.037693465794 194.685371091705)
(-185.154840073527 -153.571256707993 -160.420514785992)
(322.988847462214 304.2874913854 -23.6792337682809)
(409.079514198417 -2.7132071136196 397.855703524955)
(316.955646667081 75.0352697441814 -43.8840083865559)
(299.566811505544 -390.674427236102 67.5551322629333)
(274.535361527619 -77.2699441631998 -288.439231770328)
(-523.781628558915 -438.436361090116 479.118585816088)
(-72.1392109413224 -30.9033360829257 -209.604454260466)
(11.2232806106469 -100.468024881769 -72.3903159422803)
(80.740125229254 88.4075799913671 220.413274361682)
(-101.964943957709 -340.347722435 -853.933428898335)
(-43.8104971229361 299.14944703493 -344.294822118691)
(-111.431150266258 184.414262309027 45.1330885509853)
(396.18521085484 497.343422230673 -4.94380979106371)
(-302.842725542541 9.40063579099258 -450.481863853509)
(553.207781082455 88.3537637082592 99.2506740747572)
(655.190058083251 178.857700745874 -22.5073066479769)
(106.108226239026 279.414340855547 -178.4298247655)
(164.159629643911 208.485114413138 -200.975956947523)
(264.993174785268 -246.591833739299 -215.468939227012)
(-127.234102314171 -248.697823103573 -37.3791090738594)
(-141.648565895234 -667.340620539582 94.1162265833479)