/*--------------------------------*- C++ -*----------------------------------*\
  =========                 |
  \\      /  F ield         | OpenFOAM: The Open Source CFD Toolbox
   \\    /   O peration     | Website:  https://openfoam.org
    \\  /    A nd           | Version:  7
     \\/     M anipulation  |
\*---------------------------------------------------------------------------*/
FoamFile
{
    version     2.0;
    format      ascii;
    class       polyBoundaryMesh;
    location    "constant/polyMesh";
    object      boundary;
}
// * * * * * * * * * * * * * * * * * * * * * * * * * * * * * * * * * * * * * //

2
(
    sides
    {
        type            symmetry;
        inGroups        List<word> 1(symmetry);
        nFaces          2;
        startFace       499;
    }
    empty
    {
        type            empty;
        inGroups        List<word> 1(empty);
        nFaces          2000;
        startFace       501;
    }
)

// ************************************************************************* //
