/*--------------------------------*- C++ -*----------------------------------*\
  =========                 |
  \\      /  F ield         | OpenFOAM: The Open Source CFD Toolbox
   \\    /   O peration     | Website:  https://openfoam.org
    \\  /    A nd           | Version:  7
     \\/     M anipulation  |
\*---------------------------------------------------------------------------*/
FoamFile
{
    version     2.0;
    format      ascii;
    class       scalarField;
    location    "0/lagrangian/dsmc";
    object      Ei;
}
// * * * * * * * * * * * * * * * * * * * * * * * * * * * * * * * * * * * * * //


81998
(
1.24367067875726e-21
6.27452021518111e-22
1.14937264622334e-20
1.17658339190112e-20
4.24732524810143e-20
1.99917608535511e-20
1.82282399116549e-20
1.76871152563378e-21
5.17845427015814e-21
1.68210144055379e-21
2.27264916716657e-21
2.4452937945482e-20
4.69325194367545e-21
1.23508377016505e-20
2.32027182412885e-21
2.26353150498898e-20
9.68990945943137e-21
2.51666432501543e-20
6.96179531441187e-21
1.10129252178661e-20
3.03891266908408e-22
1.50564394890311e-20
2.21643895242212e-21
1.89782325902501e-21
4.06937882160762e-20
5.04298175968047e-22
1.10517127720605e-20
6.9390119100398e-21
2.46017055468606e-20
6.9286789529717e-22
9.64037422185189e-21
1.10433929730121e-20
5.7737949742576e-22
9.63949114667064e-21
5.80170354678205e-21
7.6861878480583e-21
3.12831452322621e-20
1.06246580362377e-20
1.88798120281415e-21
3.7131797745286e-22
9.11772657973915e-21
5.43507586532512e-21
3.19118049441822e-20
3.35816674752837e-21
3.07511001163538e-20
1.49034930688772e-21
5.28585200967657e-21
6.04359240590801e-21
2.46666967710196e-20
3.02347307852084e-20
2.08022807509042e-20
2.02551874706748e-20
4.25122770887848e-20
5.76260200969563e-21
2.68693172623975e-20
3.53586204402114e-20
8.72039343431764e-21
2.39175672448268e-21
1.03306456324307e-20
1.24187181902996e-21
6.01004257012889e-21
4.09896567546712e-21
3.07296762217377e-21
2.01214324933185e-21
1.2115618948244e-20
1.7822671585279e-21
3.89414045446437e-20
1.13016212975168e-20
1.95952455993013e-21
5.62548629649187e-21
8.33449203815511e-21
6.61793839654527e-21
1.96657889123497e-22
6.65477852211226e-22
2.56310531511246e-20
1.16075588021607e-20
2.2961010738435e-20
6.33473699910864e-21
1.12396954526675e-21
1.98663784950715e-20
1.37716755284434e-21
5.83763151140874e-21
3.21093249509639e-20
5.10461107757299e-21
2.69612040291417e-21
6.58458848794468e-21
1.51222037522192e-20
1.09110557922437e-20
2.67532311442132e-21
3.42363794064833e-21
1.14076072515074e-20
8.31387275671007e-22
2.35112695395029e-21
1.38525404115276e-20
7.63560150487151e-21
2.42578927905996e-20
1.34188433061478e-20
1.44593016854943e-20
2.12366816921261e-20
1.35511178381031e-20
7.60307310846572e-20
3.92846931499537e-21
1.22919171305621e-20
3.29010388286826e-20
8.25922212107268e-21
4.49349040614468e-21
8.25271924943126e-21
1.6057032215562e-20
2.05033544117725e-20
1.58274991713712e-21
2.03799048387048e-20
3.47166113512188e-21
5.20996905306226e-21
7.0003483963175e-21
8.79685824285128e-21
1.04252902350824e-20
5.90189919658e-20
1.31275143608295e-22
1.38463107185668e-20
1.24864150209752e-20
1.82573676975671e-21
4.80283453989495e-21
3.52233892083701e-21
1.29062806037222e-20
7.29700249777851e-21
8.19688779833279e-21
1.82073246896952e-21
4.66698870652142e-21
7.6787311811733e-21
1.27609396964433e-21
1.51516770220765e-20
1.34958086729514e-20
2.61584998272691e-20
3.12832166151724e-20
1.41758997565255e-20
1.16714121072891e-20
1.1824352114412e-20
5.03731120323482e-20
1.74499388411961e-20
8.7830717400818e-21
7.04772419412182e-21
1.11963664756429e-21
6.6045431655306e-21
3.00197602159038e-20
5.44432078432377e-21
2.98389062323084e-20
1.09765279828938e-20
8.86771105152051e-21
9.12797389616135e-21
4.34951537190605e-21
5.26987248659779e-21
6.34212517967809e-22
2.56359591028235e-20
7.6594469329286e-21
1.13334686346233e-20
1.19434451036503e-20
1.04084202294007e-20
3.27128123161509e-20
2.97198480569764e-21
2.09370774592915e-21
9.70241833499544e-21
1.0581765719154e-21
1.47397646863647e-20
6.2837837025812e-21
1.71369881947202e-20
5.96017792230539e-20
2.66157273902529e-20
3.18981161507749e-20
3.09677098220291e-21
2.34831396181585e-20
1.90476587990779e-21
3.99920084172311e-22
1.16164454567408e-20
3.32031668932634e-20
1.55947509685588e-21
6.63212351800531e-20
8.57695700088725e-21
2.16126323344888e-20
1.98587807388614e-20
1.37268438066158e-20
1.05970664753467e-20
1.14514067294569e-20
4.27454438009794e-21
9.57278679361493e-21
5.03482201057102e-21
3.12171845014365e-20
9.48851809866791e-21
1.71925452398811e-20
8.28600489108339e-21
1.66416167143944e-20
2.68143188474752e-21
7.74138232404631e-21
4.8704077818203e-20
1.73116894091758e-21
3.26936700502263e-22
1.04029351985858e-20
3.64721906511871e-21
9.53832839953767e-21
4.85981702499611e-21
5.57987969389748e-20
9.28789375702339e-21
9.27331907841715e-21
8.0190548475556e-21
3.19252744121003e-20
4.72203993049491e-22
4.17235691157596e-21
4.66839388742547e-21
1.87533134933236e-20
6.07764109376326e-21
4.2561599877476e-20
1.22659758294389e-20
4.41988385922315e-21
9.98464759115857e-21
1.42730755390299e-21
9.5391578208434e-21
3.94175728572229e-20
4.98666123707787e-20
6.03770230094279e-20
1.83976174598186e-20
3.56006029398485e-20
8.20217101940731e-22
8.56666534131402e-21
8.19941917637231e-22
2.82131655257653e-21
1.37382909314328e-20
2.65558303265082e-21
3.58600781955458e-21
3.58180055930302e-20
1.20528957795729e-21
7.03973347265318e-21
5.46498457694283e-21
6.55029470480821e-21
1.60046410299252e-20
2.02653702255688e-20
8.53201233959747e-21
7.30593887363143e-21
4.9868961801044e-21
4.77618489860888e-21
1.05679211158887e-20
3.37943994409456e-21
5.42398336864002e-21
1.26110551012509e-20
7.33848675237609e-21
3.94981208406473e-21
7.57555945079078e-21
2.96343121965241e-21
8.07668439299528e-21
2.58548339493718e-20
1.3554650536099e-20
1.63011002174564e-20
8.29350378497637e-21
1.81953482417707e-21
4.52009820681591e-20
2.03966636241397e-20
1.70485962001146e-20
1.97467363565515e-20
5.55651808628848e-20
2.19176477515537e-20
1.99538796433222e-20
1.33095401986833e-20
2.6632904170729e-20
4.4184386686498e-21
1.81885373405657e-20
2.13033036687425e-20
8.58331739531519e-21
2.98752149194466e-20
4.17974488739892e-22
4.9138976273705e-21
4.74779128247444e-21
8.36598179240612e-21
1.33025896074073e-22
1.62275564872685e-21
3.55190748974736e-21
4.91824617625995e-20
1.46257015313447e-22
1.30807249472146e-21
1.27528284960881e-20
8.33102724700135e-21
8.10194878072347e-21
1.25432466725019e-20
3.04688041719625e-21
1.86674157804195e-21
1.19641388575818e-20
6.6247676462131e-21
4.3957455898204e-20
9.72117888292668e-22
1.44618502571658e-21
1.79845621732195e-20
3.92881300379659e-20
5.22371338732496e-22
6.53904931759432e-22
2.5439933845207e-20
6.81879955352356e-21
1.11956336631383e-20
1.17683594154092e-20
6.16502267933071e-21
2.83981040939435e-21
1.76383520038392e-20
2.91240251739594e-20
4.04718279274078e-20
1.23777646885342e-21
1.86642590700557e-20
3.21330975424622e-20
1.76180672324504e-20
2.19123247804027e-20
9.5841605501521e-21
2.93830615808419e-20
1.62771315673778e-20
3.18045122170475e-20
1.04155280983709e-20
1.37559450885421e-20
1.02892624082687e-20
1.6735206656004e-20
7.97809119120906e-21
4.62673684357575e-21
8.25519605339692e-20
2.06346102603106e-20
2.71462188783255e-20
4.76861059955182e-21
3.62939634333666e-20
3.99805082313997e-21
2.12706981827948e-21
4.70735462491277e-21
7.41904915931887e-21
1.52058761252306e-20
1.26543304914871e-21
2.70636403438199e-21
3.55897629126655e-20
1.1766175221125e-21
1.02791064014774e-20
5.46571208871514e-20
2.98261394343226e-20
5.99116960003899e-21
1.67295085769788e-20
2.5603091566719e-21
7.94945797272709e-21
5.32455408954625e-21
3.58714658448558e-20
6.4452345714451e-21
8.13760921958981e-21
3.33622624557857e-21
6.79455627785132e-21
2.28702825302494e-22
1.7886777153234e-21
3.25739715591874e-21
7.1729527417815e-22
3.87163724736671e-21
3.375171916132e-21
2.74739457123702e-20
3.49624661154092e-21
6.50778580197733e-21
4.7998431240617e-21
5.4675904254013e-21
1.44626348249744e-20
3.27355944271896e-21
1.72711741922995e-20
4.29071667494417e-21
6.03240214015407e-21
4.89774245899971e-21
1.68330061731141e-20
7.51968110682732e-21
1.03069917681138e-21
2.20676354696295e-20
1.91592375959763e-20
3.29844007167223e-21
3.02151501110339e-20
6.06468066671934e-20
4.89645989335081e-20
3.09577629589723e-21
1.9473136696242e-21
5.27771486382977e-21
1.15618819987334e-20
2.61332788631804e-22
5.06060551250966e-22
1.94916648367305e-20
2.33821043845134e-20
1.79040065048345e-21
5.30097700239228e-20
1.41830788860164e-20
3.70286098879935e-21
3.12908583926736e-20
2.54718540189016e-20
3.42112148942575e-21
1.7271431972284e-20
1.44568967243042e-20
4.19858530268969e-20
9.23650739977316e-22
1.37126359652311e-20
3.22856828947056e-21
5.07079602726885e-22
8.5002523471705e-22
1.63703190839421e-20
5.39981720892385e-21
2.93711411743299e-21
5.56831972598143e-21
1.57512098465555e-21
9.61012982464169e-21
1.62994701974796e-20
3.40825683870528e-21
3.87351748920751e-21
7.62751968112764e-21
2.68999883613843e-20
2.25972852224078e-21
8.9782098581141e-22
1.59879543450044e-20
1.98212874959463e-21
2.35234289901401e-22
3.56178318376659e-20
4.50281959534734e-21
2.46202042511341e-21
8.63128067949001e-21
9.64749662439949e-21
1.31956433403882e-20
5.78854514958326e-21
1.45385494181187e-20
7.28159741868576e-21
3.20804207657054e-20
2.07965353024346e-21
5.75258360347476e-21
8.39155927738725e-21
2.91280921314417e-20
3.95663653012087e-21
8.52697336138633e-21
1.83629671742377e-20
4.51169138656018e-20
1.2514332723985e-21
2.00155165840798e-20
4.95008517989585e-20
1.13798478460038e-20
1.48518043396583e-21
3.52855346058495e-20
8.20185627979794e-22
2.81821149839067e-20
1.98193230866805e-20
1.12382363121546e-20
2.33946984352371e-21
2.47713255775523e-21
2.82196930105825e-21
1.17419684290379e-20
4.27404591368286e-21
7.1534223197377e-21
1.9273230716422e-20
2.94290550431652e-21
2.21326554576651e-20
3.59307888397428e-21
1.76709302501571e-20
2.09514679036556e-20
6.38152888954208e-21
6.70359446798893e-21
7.12200901767929e-22
1.13184725370289e-20
6.57899228396327e-21
2.19907395127642e-20
1.30987497945182e-20
4.60037776865553e-20
3.09693631526769e-20
9.07281500344128e-21
4.18556260643406e-21
2.98683432625714e-21
4.13051045071323e-21
8.38805702558615e-21
8.96743562098127e-21
2.51609027266661e-20
8.98832553901889e-21
2.04102497564498e-20
1.56035649586452e-20
8.9428964865486e-21
2.1565566338823e-21
2.88178133065926e-21
2.76485529128318e-21
4.25031580059568e-22
2.21438553091673e-20
9.68326208179397e-21
4.95595041622932e-21
4.98320408717014e-21
8.23170614778951e-21
1.08415895207321e-21
5.1391900887298e-21
9.92591515774705e-21
1.65481222539521e-20
2.96168666584291e-21
1.41444783846194e-21
3.38691455662339e-20
7.24734495433106e-21
5.3160167388158e-21
1.74354747291145e-20
7.50466859097582e-21
2.32608075004557e-20
6.21004931677428e-22
1.68604204861589e-20
1.81040512449034e-20
2.84561513469885e-21
1.86868390453529e-20
5.39565118355334e-21
7.54834701058514e-21
1.3408285853019e-21
8.88918731473167e-21
2.32456198907347e-20
9.03715149575748e-21
5.02099894440598e-21
1.28938941116486e-21
1.4610635148767e-20
3.9753008836968e-21
1.26450904045821e-20
1.35833233761206e-20
1.73992207600549e-20
1.07998042058669e-20
3.22609172101608e-21
3.29898357231756e-20
2.38655001971389e-20
1.80533347726297e-20
1.59815678749296e-20
1.01804782373644e-20
9.40545810577442e-21
2.35134392121309e-20
3.71393943088458e-21
1.74899644970858e-20
7.47623457707697e-21
1.28357736952813e-20
7.49204477655932e-21
1.79321560343567e-20
5.39687919414079e-21
6.10134368184782e-21
1.23218242510074e-20
2.25450086466381e-21
4.41672058746293e-22
5.16046924916607e-20
3.52279454974577e-20
1.22388154809311e-21
1.01873011860325e-20
5.47632704818759e-21
3.61648862627614e-20
1.59369019916396e-20
7.12429133478234e-21
1.22927148159632e-21
2.4115872662123e-20
2.14236322699294e-21
1.9760459269475e-20
7.88756440388053e-21
4.8429180993763e-22
4.98329319340776e-21
2.52470912307642e-20
1.49062298951104e-20
3.85368725137437e-20
4.74061356181835e-21
1.13749867244368e-20
1.60573730430002e-20
6.4717266775616e-21
9.84092015784983e-21
4.11741456705122e-20
4.24682792836277e-20
1.01520430970969e-20
1.8805715716093e-20
1.60446258516279e-20
6.23559119717972e-21
2.05045805736366e-20
4.54153958324904e-22
1.67805940304692e-20
2.52033221085342e-21
2.1122743681111e-21
1.39775752010282e-20
6.18584662321073e-21
1.3782844721432e-20
3.44987899512222e-20
1.78737908233291e-20
3.29923704511609e-21
1.70836869488023e-21
1.26261826474403e-20
5.78671803737263e-21
1.32593513951229e-21
6.76427823234949e-21
3.18582910133652e-21
1.10259009735014e-20
1.40216842977788e-20
1.59720156620163e-20
9.14553374354105e-22
2.52203902045816e-20
1.26459692635133e-21
1.97626921908625e-20
8.07973274245497e-21
9.53324841411234e-21
1.80679000574745e-20
1.44635386272356e-20
3.17766391518596e-21
2.34140315014266e-20
3.12562274019696e-20
1.69581960094568e-20
8.79297919385083e-21
2.7069216069342e-20
1.8067268695743e-20
1.09935506518404e-20
5.10017537650842e-20
3.81760853978583e-21
1.15164021033622e-20
1.33188870799868e-20
5.79591957913292e-21
3.48575464041973e-20
1.68954467447832e-20
3.07643730177517e-21
1.19197667652121e-20
2.95852062053515e-21
9.74029699349735e-21
4.69065871647788e-22
2.18496540140258e-20
6.43867237122963e-21
3.60006743147919e-20
1.12368317556832e-20
1.53076818844539e-20
3.95976871207158e-21
1.28485504332591e-20
6.53809828285214e-21
1.96614342130529e-20
7.30239821217664e-21
1.77028294950339e-20
1.53220504608247e-20
1.48403483421846e-20
6.97999737157711e-21
1.1972735303883e-20
3.00904602820944e-21
7.96483119906624e-21
2.40304723369382e-20
2.39008456234801e-20
1.3704658455377e-20
2.1902514959288e-22
5.534358467359e-21
1.32957773864205e-20
1.80929547523621e-20
7.5216203908195e-21
8.49212880276554e-21
6.86248150857102e-21
6.71581655540462e-21
2.37561997726752e-20
3.38838109765563e-21
1.13928281362555e-20
2.75864315279973e-20
1.44212764246676e-21
2.88829935488436e-21
1.40130952016515e-20
1.10223570526301e-20
1.48426285891088e-20
2.5776778725286e-21
1.32697823128482e-20
1.54367681789972e-20
6.31625282185267e-21
2.09170665530813e-20
9.47867738490135e-21
1.15642160462465e-20
1.87891509046188e-21
4.88376287904807e-21
9.30185432919177e-21
2.14403303638991e-20
5.37968347906257e-20
6.59559329964087e-21
1.91370695610751e-21
7.56240464299311e-21
1.44899895528753e-20
2.5295473172997e-20
6.97059615690757e-21
3.39934721601535e-21
9.17121908560724e-21
6.6304192167099e-21
1.08028732823863e-21
2.25110157442884e-20
1.22759356978559e-20
1.50864125783773e-22
1.61869760768091e-20
5.88093590512353e-21
1.02066187399436e-21
3.53133489498444e-21
6.20849709181477e-21
4.48466985611465e-22
1.40152449980875e-20
4.37665067294044e-21
1.49159061016553e-20
1.43281557505644e-20
8.7422656348058e-21
5.0405059228729e-22
2.44059501272087e-20
4.96101004403376e-21
2.5379520503954e-21
1.19232091435085e-20
3.55786941474869e-21
6.51880900295969e-21
2.6924378488271e-20
1.82117498879932e-21
1.69856985958529e-20
3.02600121814983e-22
1.38814164085118e-20
8.78269406898463e-21
9.71674404187165e-21
1.39074144929635e-20
3.81610612022967e-21
5.11903548349742e-21
1.06877581058915e-20
1.45448572034686e-20
2.67586454217991e-20
6.14786332011631e-21
2.44942378217907e-20
4.60867159226934e-20
2.0607914548296e-20
3.78952853579053e-22
2.0906817968952e-20
1.02515777700454e-20
1.12836012563288e-20
5.15973147970912e-21
1.24540851006921e-21
2.93199458258278e-21
2.44530355282781e-21
2.50969162600777e-20
1.43662879802833e-20
7.55445557815965e-21
1.17137661727161e-20
2.50216705955421e-20
1.01553573177371e-21
6.88220860886007e-21
1.88940610774215e-21
1.67370376704049e-21
3.19996747860452e-21
1.14525188724472e-20
2.93680058799734e-20
1.37274341980137e-20
5.11766154049985e-22
7.74887918298944e-22
1.33931443106823e-20
2.3856654034442e-22
1.8494657052564e-20
6.12865449627548e-21
1.30813592560664e-21
3.81573374129276e-21
4.04111486594043e-21
3.49223465370607e-20
1.42139331602509e-20
4.61838464056045e-20
1.55800665756318e-21
2.42402949423056e-20
1.42068620024714e-20
8.12721640458949e-22
2.5166446047756e-20
1.32500554708853e-20
6.15901558035418e-21
3.1502935673746e-20
6.6696927805699e-21
6.85810648682109e-21
7.64252262475935e-21
2.54103498144886e-20
1.2178437301554e-21
1.65359852444328e-20
2.36365157343222e-20
5.44828897091771e-20
9.21526187426082e-21
1.53048664303774e-20
5.05216089499228e-21
2.02642218545551e-20
1.16027016368409e-20
6.67050452756808e-21
9.94826470713653e-21
1.67151593608975e-21
8.15462364371558e-21
1.17413307058256e-22
1.40126889840965e-20
1.0277291721341e-21
1.86422343265714e-21
2.27490760234546e-21
7.13098218348793e-21
6.00957501731108e-21
4.31876228860661e-21
9.3426411611055e-21
6.64720996956276e-21
3.00524751893603e-20
1.79131791069202e-20
1.29787009996495e-20
4.9162501906909e-21
2.64530662897332e-21
2.40405512655584e-20
1.82177905149409e-21
1.72709707842365e-21
6.91577666676827e-21
5.98184295832288e-21
9.62793506465306e-21
1.71155275461012e-22
6.7717564843284e-21
9.05041699272339e-21
1.00493358734625e-20
3.52467098357013e-20
1.32366460791193e-20
2.42973446436507e-20
9.68925747773818e-21
3.31267921489224e-20
8.12749166102126e-21
1.76498128271525e-20
9.86866956329808e-21
6.44177127142724e-21
6.94145647003935e-21
1.14949520389263e-20
1.93493693067079e-20
4.69193317794451e-20
1.42869698419388e-20
1.27878073869786e-20
3.05981425439674e-21
5.61525595731276e-22
8.69501011477686e-21
1.63023422964412e-21
4.73920641824945e-21
1.92405599837993e-21
6.53512891053896e-21
3.57964942107859e-21
6.49490049198246e-21
5.8617396741689e-23
2.13155424238272e-20
5.96753161014792e-20
2.62529310410498e-21
2.06882568566731e-22
1.73540633621407e-20
9.54163257470255e-21
1.42728956843009e-20
1.71535891351988e-21
1.26389676470484e-20
3.31066873882846e-21
5.17938320256698e-21
1.74300142796401e-20
3.89782713218442e-21
1.06159654107423e-20
2.06997224546586e-20
1.89521511632991e-20
6.93652055753463e-21
5.78278667278028e-21
1.00995544052769e-20
2.03622453601745e-20
3.84775861987857e-21
1.65034247685192e-20
3.92992844748249e-22
1.18804275180586e-20
1.38286788772023e-20
4.52761140750548e-20
4.2239586157554e-21
4.02803310144324e-21
7.68761260665259e-21
1.48839150427696e-22
3.08188015835884e-22
5.68989627675493e-21
1.50207173904076e-20
1.59790856132881e-21
3.30073125623975e-21
3.04717155730484e-21
1.21533212645558e-20
1.00694266605872e-20
1.17458467413914e-21
2.15749218705595e-20
1.4806898868874e-20
3.52071830523535e-22
1.74205593330516e-20
1.80806988224974e-21
7.66916462429504e-21
4.17155478643308e-22
2.33023608791346e-21
1.59317933597315e-20
6.75863581989005e-21
2.50480775947538e-21
6.71945657315896e-21
4.72209240331449e-21
1.04891976389987e-21
4.43783469918734e-21
1.3258266949024e-21
8.11441381836701e-21
2.93887538237575e-21
2.30371052759999e-20
2.50709048945057e-21
2.73344289622387e-21
1.02192256197986e-20
5.12108227114585e-21
2.63980237415892e-20
1.96071798540514e-20
7.38014044228353e-21
7.67218831539326e-21
4.64893098253369e-21
5.40737690612839e-21
2.905435592156e-21
2.10641942106342e-20
8.004312935971e-21
1.34184596539347e-21
2.29816560609091e-20
1.5503229457288e-20
5.36012650863629e-21
6.9443209367733e-21
7.73139560305666e-21
3.41821952595014e-20
1.66861262383663e-20
1.9410951224293e-21
5.32663210094081e-21
6.69515033786456e-21
8.72197690485898e-21
1.66377225716235e-20
5.64127737245393e-22
1.67202972731592e-20
1.09103048946285e-20
2.19277568770217e-20
5.94614484835972e-21
8.13801338492546e-21
1.05392439639197e-20
6.03215381852219e-21
1.28363281401859e-20
2.8178325280334e-23
4.65225776748264e-21
3.46307646626386e-20
6.81255871815865e-20
8.7736644474334e-21
4.06046629831037e-20
2.781467067872e-20
5.37482391498337e-21
4.00545927987738e-20
4.89161199911214e-21
2.52177685032984e-20
2.23747294989036e-21
7.11980354979274e-21
1.68347249778352e-21
2.38220291935728e-21
5.01613577269605e-21
1.42141728405353e-20
5.51864768799968e-21
1.09901527042003e-20
4.63082397950765e-20
1.8050985564446e-21
3.3107434209787e-21
8.35521899888714e-21
5.34690915402156e-21
2.63143094749163e-21
3.53531040620933e-21
1.31224126436173e-20
7.67419673517863e-21
2.28151311374969e-20
5.2471905626073e-21
9.61945685639884e-22
5.79645283541921e-21
1.72969322829204e-20
7.01788325367436e-21
1.84793802583581e-20
4.36938440403677e-20
2.05654735997714e-20
3.93806305580641e-20
1.66415115473168e-21
1.29577637756038e-20
5.75008486376964e-22
1.18720713829958e-20
3.09534857534715e-22
1.90966093202687e-20
3.33976211434895e-21
2.54686537805921e-21
1.94045699098202e-21
1.90396906111063e-20
2.13540977001188e-20
1.77582918978254e-20
2.02208903262394e-20
8.42785910295775e-21
1.41283759939182e-20
8.72161188465208e-21
4.39362466265244e-22
1.2097840599497e-20
1.61164643028989e-20
5.18487316308326e-21
7.97291076778734e-21
2.32320621384538e-20
2.36261800276035e-21
6.22619582353227e-21
2.04691370469474e-21
1.0561263822565e-20
7.56274171469836e-22
2.40501907842588e-21
8.09948464218418e-21
9.71095732994344e-23
2.67128921221802e-21
7.26658118757021e-21
5.02165513819154e-21
4.47524803854251e-20
4.85422298159394e-21
1.66428866436576e-21
3.37781826233651e-21
3.88311714561356e-21
1.80336132618442e-21
1.23657003802532e-20
8.57691447971323e-21
6.00005295229727e-21
6.29057332312971e-21
9.81443142588106e-21
4.09488095016394e-21
1.3941993165273e-21
8.76068760104832e-21
3.59695980705297e-21
2.57220334868948e-20
2.4090228334295e-20
4.94055181200085e-21
2.38228886246436e-20
2.3496019102974e-22
1.75903400973998e-20
4.17279386959398e-20
4.13396828292801e-21
6.59679581887731e-21
2.43169184651241e-21
4.10180262224731e-22
3.12873485550477e-20
1.18687400665559e-20
3.27559003063821e-21
4.19516769089067e-21
1.29649230871599e-20
4.96950888023515e-21
1.21521392597332e-20
3.55772097218816e-21
9.72415325256874e-21
2.75558732529606e-20
2.19138161719219e-20
7.8067228814675e-21
7.16930616719624e-21
1.07237347859097e-20
1.02774158613281e-20
9.53465728615637e-21
2.36775501754852e-22
6.41346198092146e-21
6.94235132808568e-21
4.76835427361208e-21
2.74380785700812e-21
5.54600378379672e-21
1.51763170583551e-23
5.14669426025612e-21
1.24660980397202e-20
1.79444575204604e-20
2.36196117002555e-21
1.38030332962772e-20
8.11822629490884e-21
7.0670167080549e-21
8.42195643769947e-21
4.98207264670984e-20
3.77143079288393e-21
9.41305181275935e-22
2.38001657345823e-22
6.11379823460531e-20
8.41611504821706e-22
4.73674333299446e-22
2.38654462232687e-22
5.20750204842585e-21
1.67706918697076e-20
6.77648273933236e-21
1.01824749440544e-20
1.54744834437461e-20
1.68173278354728e-21
3.8056180108398e-21
5.42324434536902e-20
2.47916176857135e-21
9.10144522668305e-22
5.42954378975112e-21
1.2037665138239e-20
1.50890567045724e-21
1.27745908810653e-20
8.12540451048848e-21
2.43876415418032e-21
8.89495840994064e-21
5.35454232093579e-21
2.28058761504336e-21
1.92893279799586e-20
1.92400949143281e-20
1.71136635697386e-21
9.60014008049353e-21
3.17233731388415e-22
2.38380131351826e-21
1.19614308935659e-20
3.79826537021946e-21
1.77877606387574e-20
9.59579191788301e-21
1.920179325965e-20
1.43223793074603e-20
1.0917531765315e-20
5.3707978674419e-21
3.4421397265524e-21
5.93068358085017e-21
4.1119368612972e-20
4.20402132424237e-21
6.18126313144522e-20
4.17458938061198e-20
4.17854538196378e-21
2.68745746676619e-21
2.82601498774326e-20
1.32336367021477e-21
1.25442882129914e-20
6.24811463141513e-22
1.18762705302546e-20
1.43458234759574e-20
2.16497075306541e-21
8.5661434714725e-21
4.26138450271134e-20
7.3632084654353e-21
1.56588505971975e-20
3.13377180624021e-20
1.55627626691699e-20
1.31461696923585e-20
7.81421575498333e-21
1.13945694119034e-21
2.65529401038511e-21
1.57865523789801e-20
1.85196004052969e-20
1.2279564482002e-21
4.59087978748021e-21
1.59497412274072e-20
7.7429422892879e-21
8.51688269838207e-21
2.73428711678873e-21
3.57415945585063e-20
2.21483614731852e-21
4.9045111794515e-21
9.0093142085123e-21
9.85270289378622e-21
1.44564016713372e-20
2.7399858907122e-20
1.02108868831831e-20
2.09690066101207e-20
1.77433466587306e-20
4.48292834853583e-21
1.78644060995749e-20
1.1275550548483e-20
1.34011090079518e-20
2.82769705473646e-20
3.57720893225547e-21
1.26530020198896e-20
3.0640096927739e-20
1.57391605765836e-20
5.537824981199e-21
4.64232619671816e-21
1.96135221952645e-20
3.52605496261569e-21
2.95896585381582e-21
1.68825035066434e-21
2.97790198971524e-21
1.41606634708494e-20
1.14566121884824e-20
1.34785256776503e-20
1.33507341832393e-21
5.76278952342003e-21
6.59644314733809e-21
4.40843562951249e-21
3.37259416702682e-21
1.42151862557911e-21
1.32130489323461e-20
5.05048537647646e-22
3.68772710183124e-20
2.79102950905609e-22
2.61342559704904e-21
2.80943375263867e-20
5.4544613223647e-21
5.05036218597931e-21
1.69836035268432e-20
2.0068064935936e-20
2.55669343544545e-20
5.42323386280427e-21
5.75227988184048e-21
3.88226442283398e-20
1.67122874703681e-20
9.69356451185735e-21
9.62141065112123e-21
1.48017029015581e-21
6.02874304101242e-21
1.88111162308526e-20
2.56930691290659e-21
1.79657840841673e-20
1.6260824833534e-20
7.97912736136195e-21
1.70883786924325e-20
8.03027756999708e-22
6.1951686865055e-21
7.47167184553486e-21
8.32518938148431e-20
5.40034844282952e-21
8.07052944964327e-21
5.32446210253694e-21
2.02589483425912e-20
9.22160139952448e-22
3.20320278885268e-21
2.10564947302255e-20
7.37130207015972e-21
3.14911133988871e-21
3.81699923327235e-21
7.56536948737428e-20
5.97285959176113e-21
1.09958519201063e-20
6.84998160117893e-22
3.35196995901101e-20
7.52825323301284e-21
8.76340529403846e-21
1.64301933486214e-21
2.95946481599864e-20
8.77317180436532e-21
3.43782239026208e-21
1.97266434256768e-21
2.83172819292734e-21
2.5712858685213e-21
1.2450775160618e-20
1.28823547441879e-20
6.96804850735901e-20
2.43602243117551e-20
1.71691446320031e-21
4.1957662190037e-20
9.74327089582769e-21
8.24324684994167e-21
1.87818849383675e-20
5.08350267405551e-21
3.90801748315461e-20
1.30651699765527e-20
5.41263731009161e-21
3.18868135397693e-21
3.75286260421704e-22
2.85929915489988e-21
1.13912267453775e-20
1.95543451732964e-20
1.08480490958104e-20
1.05896420073664e-21
3.13374353852815e-20
1.90661313078831e-20
2.0140512235577e-21
3.75460478780885e-21
5.05190153737938e-21
1.93699633214463e-20
1.5997519871477e-20
6.48341598108142e-21
9.3228993216331e-22
2.70363309165314e-21
5.49305063597505e-21
4.62595742330249e-20
1.10372249037289e-20
2.26654201247813e-21
1.89975857331247e-21
3.00857752406348e-21
2.36725597950564e-21
3.82893608979615e-21
1.91951942002258e-20
7.42163084341914e-21
8.39055813868082e-21
1.62543722671521e-20
1.18844417005345e-20
1.3195724104849e-21
6.32019704114711e-21
9.66378088445884e-23
2.65542588209637e-20
1.35177998538566e-20
1.72535149354424e-20
3.1774112470089e-21
1.86937849789272e-20
3.67754032714185e-22
2.7165897071753e-21
4.2758464223769e-21
1.19666951636543e-20
6.8377904435271e-21
2.27377054222253e-20
2.82032194931445e-21
3.0664602429446e-20
2.50268944340677e-20
4.69903797768167e-21
3.67968488249781e-20
3.8848138255394e-21
1.26361496471105e-21
5.0621041098722e-21
3.30310321354018e-21
1.48720248394732e-20
3.7842323079722e-21
9.60045468473164e-21
1.02737398759529e-20
6.43450556726121e-20
9.21634109459019e-21
6.32973086959454e-21
5.41224905244846e-22
3.73902704347849e-20
3.88563338489378e-20
9.65216289604779e-21
8.46830127704027e-22
2.89155212307448e-20
1.26018606169147e-20
1.68880333523029e-20
5.78113133624033e-21
5.5281966250737e-21
1.32143304458542e-20
1.0658723884542e-20
7.0922891593304e-21
8.24308041742886e-22
2.40859992850581e-20
1.31158146051345e-20
3.30953016352515e-21
3.57037350109799e-20
2.31028093838263e-21
2.40009124012317e-20
1.75872124410162e-20
1.31438583776205e-21
3.29931614839232e-21
6.76706101349451e-21
7.52531778707335e-21
7.8551614659162e-21
2.47672674281657e-20
2.69007319296105e-20
3.34440838591087e-21
8.18737815913565e-21
4.23534443438947e-21
4.45164548466868e-21
4.193222342403e-21
7.78827022545242e-22
2.42972151478176e-20
1.99420578835706e-20
2.16022929301861e-21
5.51889560981241e-21
6.7157777477797e-22
2.94157253218457e-22
4.98647841790703e-21
3.02915074722914e-21
1.62468693086393e-20
3.06614407962856e-20
1.03524055160197e-20
3.51721420171927e-20
6.76395646660032e-21
8.75436838200476e-21
1.23106030046631e-20
1.19566925090145e-20
1.76880934414499e-20
1.97279444039733e-20
2.85884430920721e-20
3.43044870857406e-21
1.07646667076872e-20
8.10503777593467e-22
2.5525326259793e-20
3.77842978336727e-20
9.61914165237739e-21
6.98370979213283e-21
9.0052628728646e-21
3.97870925362033e-20
9.50703791792532e-21
1.69139757076841e-20
2.69282542155081e-21
3.88851902044635e-21
3.7365800631755e-23
2.47110117778159e-21
5.67150450129501e-21
8.91368141062285e-21
1.28294387736702e-20
2.64240043123246e-21
1.1639799991666e-20
7.56659354123986e-21
1.40197013264072e-20
1.82410952666142e-20
2.15615351142417e-20
5.92376405976767e-22
3.27100879837606e-21
6.76600767276938e-21
5.6367223895013e-21
1.49657437248444e-20
5.9752630074835e-21
3.95958618508009e-21
5.30375153147306e-22
6.89141715081546e-21
1.2437317955059e-20
2.87076158940002e-21
2.25175239393647e-20
2.13688080380071e-20
1.22082890664774e-20
1.49288576312114e-20
6.54725332628013e-21
1.67944379422169e-20
3.68011827583531e-20
3.67796736513138e-22
2.14892835245785e-20
4.1207997841131e-21
1.55561459328074e-20
5.95719638930565e-21
2.32689724309017e-20
7.8117118092951e-21
1.36985210899546e-20
1.20246868227837e-20
2.51572606390113e-20
3.51893158852889e-20
1.30798677222638e-20
1.53289428438621e-21
3.02191471098014e-21
1.94777484113278e-20
6.13928624974543e-21
1.17182319517084e-20
1.42796857557588e-20
6.96254158752326e-20
2.95312476819817e-20
3.29246346068151e-21
2.60320584655398e-20
9.34153452131279e-21
7.93348986880431e-21
6.45482265992406e-21
4.38045776198705e-21
1.86975533245971e-21
1.42994282038074e-20
2.67946690401624e-21
3.68341306908907e-21
1.58069503727328e-20
9.20905511069042e-22
2.52692183015873e-20
1.5259017609929e-21
4.97471712650553e-22
9.28169053832e-22
5.88043561495962e-21
8.97852040103209e-21
1.06420332654924e-20
1.00047285952896e-20
4.18034474117421e-21
1.29382293398339e-20
2.44879961070222e-20
3.0665231030001e-20
1.82268515948017e-20
1.50827395585535e-20
1.06972992575666e-21
2.96348516441654e-20