/*--------------------------------*- C++ -*----------------------------------*\
  =========                 |
  \\      /  F ield         | OpenFOAM: The Open Source CFD Toolbox
   \\    /   O peration     | Website:  https://openfoam.org
    \\  /    A nd           | Version:  7
     \\/     M anipulation  |
\*---------------------------------------------------------------------------*/
FoamFile
{
    version     2.0;
    format      ascii;
    class       Cloud<dsmcParcel>;
    location    "0/lagrangian/dsmc";
    object      positions;
}
// * * * * * * * * * * * * * * * * * * * * * * * * * * * * * * * * * * * * * //

41019
(
(0.495043368078809 0.0905051655135845 0.203784712124616 0.210666754282991) 0 0 1
(0.293376238085326 0.217952425591649 0.389028981328011 0.0996423549950141) 0 0 1
(0.166124293580636 0.469813032541432 0.191924918442965 0.172137755434968) 0 0 1
(0.379354505334085 0.0222885129041794 0.465564116369933 0.132792865391803) 0 0 1
(0.43159208167349 0.352189498022175 0.09783281898126 0.118385601323075) 0 0 1
(0.0295846005902189 0.0516051603480926 0.614539512433112 0.304270726628577) 0 0 1
(0.08999895118179 0.211578357499083 0.247298649977893 0.451124041341235) 0 0 1
(0.450023112818596 0.343193393666299 0.191283973865211 0.0154995196498947) 0 0 1
(0.635478351730809 0.143523778766416 0.186747916042805 0.0342499534599707) 0 0 1
(0.217135036364217 0.0141548775136376 0.463890543673187 0.304819542448958) 0 0 1
(0.0276177753694341 0.787293166853488 0.0580274537205696 0.127061604056508) 0 0 1
(0.0424196026288086 0.109294898807997 0.225218268111342 0.623067230451852) 0 0 2
(0.473018536809799 0.0632116943597957 0.137999762315319 0.325770006515086) 0 0 2
(0.00124299759044355 0.0909280031919524 0.722778666764502 0.185050332453102) 0 0 2
(0.362523547839381 0.543880770914253 0.0929081570357047 0.000687524210661676) 0 0 2
(0.0556898415088863 0.341403415892263 0.106071841437359 0.496834901161492) 0 0 2
(0.106720957905105 0.33860092516986 0.0961889619938775 0.458489154931158) 0 0 2
(0.648506359197229 0.038328756578252 0.0447250595316144 0.268439824692905) 0 0 2
(0.531207041814921 0.0531154167838404 0.269812905229629 0.145864636171609) 0 0 2
(0.445814062375555 0.412181497551511 0.12521348753945 0.0167909525334835) 0 0 2
(0.0735454652457947 0.610015179961944 0.0241597425192836 0.292279612272978) 0 0 2
(0.521786493249245 0.155028854496773 0.237137033604082 0.0860476186499) 0 0 2
(0.389171632472461 0.270395943894964 0.178164375480264 0.16226804815231) 0 500 1
(0.18241419922557 0.210540337022411 0.267290256451815 0.339755207300204) 0 500 1
(0.381227933801672 0.037819518707712 0.580443571787328 0.000508975703288591) 0 500 1
(0.419184604194003 0.031044035218662 0.442383748944849 0.107387611642486) 0 500 1
(0.195773246232402 0.0426816702820452 0.0139505970291793 0.747594486456374) 0 500 1
(0.248308352660364 0.0213017738424361 0.538217661902308 0.192172211594892) 0 500 1
(0.174255019519479 0.211737659294158 0.475921666249633 0.13808565493673) 0 500 1
(0.236780782230214 0.246119238436214 0.0508917607367039 0.466208218596868) 0 500 1
(0.114084767177723 0.460320554673661 0.138886519707739 0.286708158440877) 0 500 1
(0.384908020030693 0.0721605448052355 0.150243523065001 0.39268791209907) 0 500 1
(0.1223023813218 0.045402979943895 0.601011896040291 0.231282742694014) 0 500 1
(0.122071539051803 0.0118699613958738 0.601934882346555 0.264123617205769) 0 500 2
(0.179819947574292 0.0519720260053851 0.221873745322225 0.546334281098098) 0 500 2
(0.262462859973328 0.23757309606298 0.29017243627458 0.209791607689112) 0 500 2
(0.244439341127877 0.251623346470294 0.131813001818953 0.372124310582876) 0 500 2
(0.0818765093572448 0.0484520494937892 0.438583924435079 0.431087516713888) 0 500 2
(0.411460906732781 0.13494945270943 0.0370718091726534 0.416517831385136) 0 500 2
(0.635020129848282 0.142426606267686 0.0745185296982477 0.148034734185785) 0 500 2
(0.211629026103752 0.0932526993565326 0.614136104471988 0.0809821700677276) 0 500 2
(0.457155502866984 0.182782069779917 0.354287377092972 0.0057750502601266) 0 500 2
(0.77272962499407 0.0273094717413335 0.140856480225935 0.0591044230386615) 0 500 2
(0.248990434221923 0.145014618057751 0.173359633423394 0.432635314296931) 0 501 1
(0.505002559162676 0.182180838193764 0.237808984238635 0.0750076184049249) 0 501 1
(0.341768370009959 0.0513224317692142 0.0491075548343438 0.557801643386483) 0 501 1
(0.245643386151642 0.356044705025851 0.346486170310528 0.0518257385119795) 0 501 1
(0.074189439881593 0.213301429990693 0.124074537772672 0.588434592355043) 0 501 1
(0.142666155472398 0.453198611736297 0.137365307658911 0.266769925132394) 0 501 1
(0.209772418253124 0.366763074882314 0.00557109666989721 0.417893410194665) 0 501 1
(0.179416432511062 0.216723720543077 0.00805790675804937 0.595801940187812) 0 501 1
(0.175124024040997 0.12152232509106 0.0868854387663343 0.616468212101609) 0 501 1
(0.299563156440854 0.113606643397362 0.0326706818304944 0.554159518331289) 0 501 1
(0.245980365201831 0.165075721219219 0.31752528343346 0.27141863014549) 0 501 1
(0.260902000591159 0.535690528340638 0.163919800892469 0.0394876701757344) 0 501 2
(0.107069489080459 0.495694970712066 0.172709374222874 0.224526165984602) 0 501 2
(0.201669708359987 0.319744313601404 0.152272005099802 0.326313972938807) 0 501 2
(0.376632120925933 0.374796811956912 0.0951106473803348 0.15346041973682) 0 501 2
(0.118251925799996 0.133233104366809 0.385509541723865 0.363005428109331) 0 501 2
(0.156220052856952 0.280985724646598 0.349550759885462 0.213243462610988) 0 501 2
(0.0749745005741715 0.47937071416527 0.219097064808019 0.226557720452539) 0 501 2
(0.32421848224476 0.0368565823882819 0.0600822605192713 0.578842674847687) 0 501 2
(0.0163937364704907 0.116453042719513 0.622820249758659 0.244332971051337) 0 501 2
(0.396981993224472 0.407545737922192 0.0830182875506621 0.112453981302674) 0 501 2
(0.3949487330392 0.0435475134290362 0.188767398707608 0.372736354824156) 0 1001 1
(0.408133707940578 0.147649821359664 0.23755894927308 0.206657521426678) 0 1001 1
(0.600441644433886 0.0835017939098274 0.25366652943193 0.0623900322243571) 0 1001 1
(0.257510308176279 0.240058775991169 0.158711696974965 0.343719218857586) 0 1001 1
(0.154735900927335 0.372375598642998 0.333933115936793 0.138955384492874) 0 1001 1
(0.108680767938495 0.197888036258524 0.515723148826504 0.177708046976477) 0 1001 1
(0.491670017130673 0.086595933418725 0.218899005558338 0.202835043892264) 0 1001 1
(0.314204782713205 0.0889470009133414 0.117315584328006 0.479532632045448) 0 1001 1
(0.014657280407846 0.554698876570896 0.390632612165078 0.0400112308561802) 0 1001 1
(0.111329234205186 0.174540374893698 0.182029139250514 0.532101251650602) 0 1001 1
(0.145791119430214 0.423639545682824 0.0482870587147707 0.382282276172191) 0 1001 1
(0.0360874626785517 0.404140675440431 0.234675136394778 0.325096725486239) 0 1001 2
(0.402048545889556 0.225674476474524 0.0691182678565201 0.3031587097794) 0 1001 2
(0.226463925559074 0.0597081049345434 0.219443115871405 0.494384853634978) 0 1001 2
(0.0851320512592793 0.127097541466355 0.523378939833504 0.264391467440862) 0 1001 2
(0.441645679064095 0.227146564051509 0.119541522581123 0.211666234303273) 0 1001 2
(0.25996988080442 0.227442286908627 0.374688116367909 0.137899715919045) 0 1001 2
(0.274108678102493 0.0181963336654007 0.103333958424617 0.604361029807489) 0 1001 2
(0.611298352945596 0.181657896377146 0.134441850706938 0.0726018999703202) 0 1001 2
(0.386866458225995 0.285731388721615 0.280364811420434 0.0470373416319554) 0 1001 2
(0.600369965657592 0.271750079467893 0.0465210215188837 0.0813589333556319) 0 1001 2
(0.159459638409317 0.615168299525976 0.0374040589668065 0.187968003097901) 0 1501 1
(0.105885540135205 0.0217982763424516 0.459257813170552 0.413058370351792) 0 1501 1
(0.501431146636605 0.00140522047877311 0.177688801195505 0.319474831689117) 0 1501 1
(0.233003662899137 0.0430623088032008 0.510188069194553 0.21374595910311) 0 1501 1
(0.329553113784641 0.323963678907603 0.0538697368465353 0.292613470461221) 0 1501 1
(0.183235279284418 0.174360771663487 0.170799918938424 0.471604030113671) 0 1501 1
(0.296680450905114 0.170760308392346 0.218213488813481 0.314345751889058) 0 1501 1
(0.0417867107316853 0.445746205281466 0.245056394953283 0.267410689033566) 0 1501 1
(0.192423476371914 0.317995430435985 0.0393199413083539 0.450261151883747) 0 1501 1
(0.0374532998539507 0.118920216802508 0.515723941847689 0.327902541495853) 0 1501 1
(0.306080678477883 0.00757711008189175 0.269885837566108 0.416456373874117) 0 1501 2
(0.233406233601272 0.0244644070044376 0.438529398757964 0.303599960636326) 0 1501 2
(0.192567201796919 0.139122101478279 0.271052061580122 0.39725863514468) 0 1501 2
(0.0619121016934514 0.0891712410375435 0.460872191470116 0.388044465798889) 0 1501 2
(0.0487734009511769 0.681730613112443 0.198688446544111 0.0708075393922691) 0 1501 2
(0.0832549529150129 0.180103568825852 0.647032147273421 0.0896093309857137) 0 1501 2
(0.120159875135869 0.298703131731593 0.456591691821814 0.124545301310725) 0 1501 2
(0.460884041152894 0.127326723188198 0.209055587649345 0.202733648009562) 0 1501 2
(0.61223529977724 0.0128313200548427 0.144659508019686 0.230273872148232) 0 1501 2
(0.132783430162817 0.376363655086565 0.192039060406387 0.298813854344231) 0 1501 2
(0.468040330335498 0.354560784064211 0.159415944945067 0.0179829406552244) 0 1501 2
(0.210005356464535 0.0892500560730696 0.596038185525709 0.104706401936687) 0 2001 1
(0.0361222364008427 0.19195742579177 0.545405672397455 0.226514665409933) 0 2001 1
(0.177550382446498 0.162937100045383 0.479966577142466 0.179545940365653) 0 2001 1
(0.505208469927311 0.188006428070366 0.207140993792571 0.0996441082097514) 0 2001 1
(0.133153978269547 0.507346015423536 0.0913283918052849 0.268171614501632) 0 2001 1
(0.070064613595605 0.280392751097679 0.00527545530350109 0.644267180003215) 0 2001 1
(0.150759757962078 0.00865433830767868 0.280947714578349 0.559638189151894) 0 2001 1
(0.0994562213309109 0.250382034573704 0.322021757718169 0.328139986377216) 0 2001 1
(0.25309914490208 0.154166068416089 0.226644069422037 0.366090717259794) 0 2001 1
(0.213794819545001 0.22002379829064 0.0493382178246902 0.516843164339669) 0 2001 1
(0.00374683924019348 0.136244649067521 0.180591101292501 0.679417410399785) 0 2001 1
(0.241871662903577 0.213681047782296 0.246833266224712 0.297614023089414) 0 2001 2
(0.250623439438641 0.146017638500795 0.103303843643516 0.500055078417048) 0 2001 2
(0.463026217650622 0.164116383530215 0.129730201326311 0.243127197492852) 0 2001 2
(0.0634775962680578 0.178968471940623 0.0777863119728863 0.679767619818433) 0 2001 2
(0.0344559922814369 0.448912707623087 0.0191424577496946 0.497488842345781) 0 2001 2
(0.304296316578984 0.0469138007611107 0.609177583828568 0.0396122988313366) 0 2001 2
(0.00188731914386153 0.613565733656268 0.151524490211159 0.233022456988712) 0 2001 2
(0.106673882342875 0.539040668867517 0.275306141469628 0.0789793073199799) 0 2001 2
(0.28966355882585 0.000509488396338918 0.193878229241818 0.515948723535992) 0 2001 2
(0.102631512098014 0.0725877871736853 0.601951513905078 0.222829186823222) 0 2001 2
(0.335638737305999 0.0558134247549044 0.304230267647654 0.304317570291443) 0 2001 2
(0.129286950919744 0.454364334698783 0.121825225185603 0.29452348919587) 1 1 1
(0.225853866897499 0.550606240052742 0.172767450567335 0.0507724424824241) 1 1 1
(0.0920486957766026 0.0400916798971638 0.838819626253098 0.0290399980731353) 1 1 1
(0.0874581439420692 0.0718150790780727 0.531300844158977 0.309425932820881) 1 1 1
(0.209703893866409 0.0949395154602731 0.0510937501676381 0.64426284050568) 1 1 1
(0.228655676357495 0.128945283591724 0.103106856811792 0.53929218323899) 1 1 1
(0.203672539908488 0.317701592575734 0.245532596018165 0.233093271497612) 1 1 1
(0.185943800490252 0.314589431043763 0.223236545454711 0.276230223011274) 1 1 1
(0.0928966379724897 0.220479907002277 0.47422443702817 0.212399017997063) 1 1 1
(0.111910841893378 0.346182230860008 0.503686413634568 0.0382205136120451) 1 1 1
(0.578978546895064 0.0612720707431549 0.330082890111964 0.0296664922498166) 1 1 2
(0.150650621857507 0.516740028280758 0.0345521974377268 0.298057152424008) 1 1 2
(0.253380564972717 0.277422457933447 0.101387048140189 0.367809928953648) 1 1 2
(0.477765836752891 0.0202246424742345 0.380790784489394 0.121218736283481) 1 1 2
(0.338820842094737 0.413390610832712 0.0299108661711129 0.217877680901438) 1 1 2
(0.101795825641552 0.0501180798746899 0.0692769205197945 0.778809173963964) 1 1 2
(0.185595563612886 0.0797352055087648 0.132863804232325 0.601805426646024) 1 1 2
(0.0792373768053939 0.185375034343452 0.708175831940026 0.0272117569111287) 1 1 2
(0.275134833529618 0.0806251759640742 0.0431289016269017 0.601111088879406) 1 1 2
(0.0748627143911696 0.396703887730853 0.258908786810951 0.269524611067027) 1 1 2
(0.132396013010293 0.233879967592665 0.0603753980249086 0.573348621372133) 1 502 1
(0.0313960653729736 0.872942447662351 0.0107724638655804 0.0848890230990946) 1 502 1
(0.177053977269679 0.460122119635332 0.232969325501484 0.129854577593505) 1 502 1
(0.315073130186647 0.121167837176465 0.0866115014068848 0.477147531230003) 1 502 1
(0.142343257088214 0.617557633202486 0.147109310608395 0.0929897991009057) 1 502 1
(0.147888449020684 0.567270524334155 0.280572226736702 0.0042687999084592) 1 502 1
(0.21928486879915 0.0718882954679616 0.475845357403141 0.232981478329748) 1 502 1
(0.335212962701917 0.155032678972918 0.45206209830941 0.0576922600157559) 1 502 1
(0.156817128416151 0.113949117250729 0.685754228383315 0.043479525949806) 1 502 1
(0.138415576890111 0.0992718818597648 0.353024899959549 0.409287641290575) 1 502 1
(0.402796871960163 0.519617607351393 0.0318330316804236 0.0457524890080208) 1 502 2
(0.0296265031211078 0.0387681080028414 0.396918252576133 0.534687136299917) 1 502 2
(0.240168588701635 0.58496686629951 0.0985056138597562 0.0763589311390982) 1 502 2
(0.341596529819071 0.16038318304345 0.489724641200166 0.00829564593731248) 1 502 2
(0.0182781983166932 0.618859366513789 0.130061507225044 0.232800927944474) 1 502 2
(0.414961806032807 0.208164650015533 0.0767595712095221 0.300113972742138) 1 502 2
(0.360995292663574 0.0480180107988417 0.324313445016751 0.266673251520834) 1 502 2
(0.36579791456461 0.085271262563765 0.390821509528898 0.158109313342727) 1 502 2
(0.638394030742347 0.0225300556048751 0.21794624999165 0.121129663661128) 1 502 2
(0.223409050609916 0.378680708818138 0.142119606025506 0.25579063454644) 1 502 2
(0.319945271592587 0.372297551017255 0.0316721154376716 0.276085061952487) 1 502 2
(0.0892335758544505 0.45066981716082 0.303406771272416 0.156689835712314) 1 1002 1
(0.165106864646077 0.367872444447124 0.0691066528670551 0.397914038039744) 1 1002 1
(0.312857271172106 0.127628350630411 0.117946430575095 0.441567947622389) 1 1002 1
(0.210143371485174 0.0112923434935748 0.218142306897766 0.560421978123486) 1 1002 1
(0.0394160118885338 0.400570353958751 0.498549875803296 0.0614637583494186) 1 1002 1
(0.473458591382951 0.202514014672467 0.106159534305355 0.217867859639227) 1 1002 1
(0.619362877681851 0.158405227120962 0.176085065118973 0.0461468300782144) 1 1002 1
(0.0243960013613105 0.539504475891581 0.210533926729122 0.225565596017987) 1 1002 1
(0.64542284142226 0.233112204354288 0.115340590011296 0.00612436421215533) 1 1002 1
(0.598291982896626 0.0315364375710629 0.225742204580442 0.144429374951869) 1 1002 1
(0.614936092868447 0.0640372820198536 0.00898586353287131 0.312040761578828) 1 1002 2
(0.661521065048873 0.251706283073872 0.0324954106472266 0.0542772412300277) 1 1002 2
(0.263065098784864 0.189576140604913 0.237610350828607 0.309748409781616) 1 1002 2
(0.444876084569842 0.081083354074508 0.0338039342313793 0.440236627124271) 1 1002 2
(0.127970159053802 0.534019359387457 0.130122076720011 0.20788840483873) 1 1002 2
(0.82702170824632 0.10992716671899 0.0216431934386824 0.0414079315960075) 1 1002 2
(0.158721036277711 0.320779422763735 0.354609119240189 0.165890421718365) 1 1002 2
(0.100210521835834 0.0812601642683148 0.161825339309899 0.656703974585952) 1 1002 2
(0.0538254017010331 0.732986998744309 0.194099219050254 0.0190883805044042) 1 1002 2
(0.152675887104124 0.155110712628812 0.448344065807769 0.243869334459295) 1 1002 2
(0.0337168304249644 0.180703870020807 0.546319435350574 0.239259864203655) 1 1002 2
(0.308674035128206 0.130050366278738 0.106623670551926 0.454651928041131) 1 1502 1
(0.0848817438818514 0.0259678941220045 0.551336900331047 0.337813461665097) 1 1502 1
(0.229979032184929 0.567079466301948 0.198540844023222 0.004400657489902) 1 1502 1
(0.230380589608103 0.254364704247564 0.233183435630029 0.282071270514304) 1 1502 1
(0.0390022741630673 0.104313601274043 0.496881277766073 0.359802846796816) 1 1502 1
(0.396226368378848 0.0511142052710056 0.518891133833645 0.0337682925165015) 1 1502 1
(0.244417065754533 0.246823164634407 0.423702292609955 0.0850574770011058) 1 1502 1
(0.0549423401243985 0.015840174164623 0.455652185250057 0.473565300460921) 1 1502 1
(0.0835291389375925 0.154132254421711 0.288217520341277 0.47412108629942) 1 1502 1
(0.149671495426446 0.212654458358884 0.374806073028572 0.262867973186098) 1 1502 1
(0.0455202287994325 0.614719200879328 0.200809923931956 0.138950646389284) 1 1502 2
(0.117146212607622 0.420833351090553 0.400132986251265 0.0618874500505603) 1 1502 2
(0.0324922651052475 0.535765971057146 0.38141693174839 0.0503248320892162) 1 1502 2
(0.241426011081785 0.219567787833541 0.122349185403436 0.416657015681237) 1 1502 2
(0.470034291036427 0.146946385502793 0.345928689930588 0.0370906335301919) 1 1502 2
(0.642415582668036 0.0112800332717538 0.224796069320291 0.121508314739919) 1 1502 2
(0.00547503726556886 0.239587223622945 0.0781092597171664 0.67682847939432) 1 1502 2
(0.334945983253419 0.0298672243952581 0.481352496892214 0.153834295459109) 1 1502 2
(0.0885434723459183 0.394956014119105 0.0320120211690664 0.48448849236591) 1 1502 2
(0.0329619944095612 0.0042949151247541 0.51500122109428 0.447741869371404) 1 1502 2
(0.0315143116749822 0.545842593070087 0.0770000838674605 0.34564301138747) 1 1502 2
(0.261692221742123 0.1867087171413 0.549175857566311 0.0024232035502653) 1 2002 1
(0.151119243819267 0.0200606221333146 0.0344831687398314 0.794336965307587) 1 2002 1
(0.117615410126746 0.31689922651276 0.098762367386338 0.466722995974156) 1 2002 1
(0.0784216788597404 0.508871531113982 0.408736256416881 0.00397053360939591) 1 2002 1
(0.319282153621316 0.0607847315259278 0.0760705107822809 0.543862604070475) 1 2002 1
(0.119212596677244 0.0430440213531256 0.281670765951279 0.556072616018352) 1 2002 1
(0.029584817122668 0.26691408874467 0.418138648383327 0.285362445749335) 1 2002 1
(0.282754393760115 0.147069459315389 0.298238102346651 0.271938044577845) 1 2002 1
(0.0906085264869034 0.363482354208827 0.0273667275905471 0.518542391713723) 1 2002 1
(0.265876331366598 0.36448465147987 0.092510718386627 0.277128298766904) 1 2002 1
(0.00875532254576672 0.104601067490876 0.855304476339368 0.0313391336239894) 1 2002 1
(0.542181252967566 0.0430433498695625 0.243997385725379 0.170778011437492) 1 2002 2
(0.285502596758306 0.192548077087844 0.463814850896597 0.0581344752572526) 1 2002 2
(0.0927092013880609 0.0559923797845888 0.0599696710705757 0.791328747756775) 1 2002 2
(0.394251723308116 0.0924426885321656 0.196406366303563 0.316899221856155) 1 2002 2
(0.0421377886086701 0.567485892213907 0.365325693972409 0.0250506252050142) 1 2002 2
(0.252352230250835 0.509817804675555 0.103487492073327 0.134342473000283) 1 2002 2
(0.182191635016352 0.272590212989585 0.227523852605373 0.317694299388691) 1 2002 2
(0.21981069073081 0.0944548314437359 0.309913922101259 0.375820555724195) 1 2002 2
(0.369612224400043 0.187513990793373 0.0662624156102538 0.37661136919633) 1 2002 2
(0.284732714295387 0.581832102034227 0.101541828364134 0.0318933553062517) 1 2002 2
(0.0894828750751617 0.408823944628253 0.413784292992219 0.0879088873043656) 1 0 1
(0.231601166538877 0.364300995133826 0.0474118422716941 0.356685996055603) 1 0 1
(0.181863885838583 0.387641523033358 0.330572492443003 0.099922098685056) 1 0 1
(0.135032491292848 0.319123883731642 0.106437982059993 0.439405642915517) 1 0 1
(0.0712622986174509 0.323602052405507 0.279400900937647 0.325734748039395) 1 0 1
(0.157545835245365 0.185103001538682 0.108045516069996 0.549305647145957) 1 0 1
(0.293100084643759 0.466637452598687 0.218527948949512 0.0217345138080418) 1 0 1
(0.295633819885566 0.389652747660868 0.0665650269947877 0.248148405458778) 1 0 1
(0.00216160714629388 0.637563076335921 0.329412509221568 0.0308628072962165) 1 0 1
(0.0989164002239457 0.125891487579805 0.320103904232395 0.455088207963854) 1 0 1
(0.0322533077560064 0.506315943785027 0.272303035482779 0.189127712976188) 1 0 1
(0.125094647519298 0.119032055605199 0.456465048715472 0.299408248160031) 1 0 2
(0.445317645557215 0.171382301952695 0.216348902788013 0.166951149702077) 1 0 2
(0.726923200767494 0.21437066607177 0.0528744063340127 0.00583172682672431) 1 0 2
(0.101918332744414 0.0729076960123957 0.674641741905361 0.150532229337829) 1 0 2
(0.0872582569718443 0.052896047476675 0.709871293511242 0.149974402040239) 1 0 2
(0.0975047233514683 0.263933316804459 0.0838098013773561 0.554752158466717) 1 0 2
(0.2813412696123 0.336937916930771 0.282913621980697 0.0988071914762318) 1 0 2
(0.226626772433488 0.00471657700838251 0.439574278891087 0.329082371667043) 1 0 2
(0.553003936074749 0.0936482227407021 0.148891900200397 0.204455940984152) 1 0 2
(0.361481035593892 0.139755186624827 0.00448137149214742 0.494282406289133) 1 0 2
(0.0927615328691883 0.0251024253666409 0.417528363876045 0.464607677888126) 2 2 1
(0.0742412628606116 0.546260604634873 0.139440803322941 0.240057329181574) 2 2 1
(0.221613724250332 0.115779125131674 0.224462543148547 0.438144607469447) 2 2 1
(0.456199097912796 0.100594015326332 0.286713278386742 0.15649360837413) 2 2 1
(0.0105130681767712 0.619255829136836 0.200721642933786 0.169509459752607) 2 2 1
(0.368754232302372 0.383935838472066 0.225433470215648 0.0218764590099132) 2 2 1
(0.390133420471063 0.325327484868486 0.0407178145833313 0.243821280077119) 2 2 1
(0.0896765077486182 0.588381309062265 0.0296328742988408 0.292309308890276) 2 2 1
(0.596005597151757 0.114075045567035 0.138081771787256 0.151837585493952) 2 2 1
(0.240045222453764 0.0178243969567166 0.509623871650547 0.232506508938973) 2 2 1
(0.341758085414774 0.201554975938048 0.125626646447923 0.331060292199254) 2 2 2
(0.0725177987479179 0.327281498350178 0.23607449093831 0.364126211963594) 2 2 2
(0.193222273141174 0.133046824950711 0.176487985998378 0.497242915909737) 2 2 2
(0.246998139191486 0.66476693237197 0.000807086471434776 0.0874278419651091) 2 2 2
(0.210162947885701 0.0171538456343071 0.317566272802647 0.455116933677346) 2 2 2
(0.0115366037935412 0.231135100126247 0.258828097954373 0.498500198125839) 2 2 2
(0.160165200475552 0.0314825102687139 0.778441045433309 0.0299112438224256) 2 2 2
(0.336881653871447 0.276801506057352 0.0106484764255287 0.375668363645673) 2 2 2
(0.0016206782311099 0.122427005320792 0.373893743846571 0.502058572601527) 2 2 2
(0.0959848328493844 0.248623372055575 0.375098012853398 0.280293782241642) 2 2 2
(0.205191710498119 0.479655692819539 0.0117013831623225 0.30345121352002) 2 2 2
(0.407953472342342 0.296122167725118 0.0999187687411889 0.196005591191351) 2 503 1
(0.23119449429214 0.0506747765466265 0.591000041924448 0.127130687236786) 2 503 1
(0.116347424220294 0.0400047153234377 0.448521703481685 0.395126156974584) 2 503 1
(0.0781293469481171 0.291748500429084 0.187261122278879 0.44286103034392) 2 503 1
(0.101121994666755 0.117372701875839 0.635579835157868 0.145925468299538) 2 503 1
(0.447591580916196 0.160236774943771 0.0572191164828815 0.334952527657151) 2 503 1
(0.0459378263913095 0.16384429158642 0.139490388333807 0.650727493688464) 2 503 1
(0.0390982618555427 0.0468524880707578 0.720951763447343 0.193097486626357) 2 503 1
(0.0643864125013351 0.289270637091246 0.269640094600621 0.376702855806798) 2 503 1
(0.720891328528523 0.00231362832711019 0.210058204364023 0.0667368387803435) 2 503 1
(0.138717841822654 0.029083583503936 0.676460226532097 0.155738348141313) 2 503 1
(0.0505727636627853 0.651739233639091 0.0592949572019389 0.238393045496185) 2 503 2
(0.0374781554564834 0.320927012711763 0.197714413516217 0.443880418315536) 2 503 2
(0.345829898491502 0.056123882997781 0.468245057389177 0.12980116112154) 2 503 2
(0.210010413546115 0.665851114317775 0.0357371247373654 0.0884013473987446) 2 503 2
(0.535369416233152 0.275826753117144 0.0796915222890632 0.109112308360641) 2 503 2
(0.164501293096691 0.484217472374439 0.0159521857276443 0.335329048801225) 2 503 2
(0.0437449319288136 0.375637333840132 0.23624479630958 0.344372937921474) 2 503 2
(0.605335415806621 0.261115702800453 0.0857414170168606 0.0478074643760654) 2 503 2
(0.108320588711649 0.418446431867778 0.281963550020003 0.191269429400569) 2 503 2
(0.407016925979406 0.348980574402958 0.0138131552375704 0.230189344380066) 2 503 2
(0.0436478573828936 0.306202865671366 0.230926378630115 0.419222898315625) 2 503 2
(0.81769202509895 0.070110960863519 0.0775121874176082 0.0346848266199231) 2 1003 1
(0.112942300736904 0.489013775717493 0.0599603843874968 0.338083539158106) 2 1003 1
(0.0903239659965038 0.489982743281873 0.0112782837823011 0.408415006939322) 2 1003 1
(0.193647008389235 0.448158138431626 0.216894014738483 0.141300838440657) 2 1003 1
(0.0302587300539017 0.211127416696393 0.447246695403016 0.311367157846689) 2 1003 1
(0.404328561853618 0.0830053677782687 0.013252270873609 0.499413799494505) 2 1003 1
(0.191795167978853 0.17560711363329 0.485618215985611 0.146979502402246) 2 1003 1
(0.0671013966202736 0.0584455393254562 0.487546930089612 0.386906133964658) 2 1003 1
(0.00555625511333357 0.127021877560739 0.804986157454576 0.0624357098713517) 2 1003 1
(0.483236005995423 0.0024378597736519 0.242138556670381 0.272187577560544) 2 1003 1
(0.396592368837446 0.253188933711495 0.307214173953984 0.0430045234970748) 2 1003 1
(0.0242060790769756 0.226163101382554 0.712209543678907 0.0374212758615635) 2 1003 2
(0.129470941610634 0.43248201534152 0.291762940585634 0.146284102462211) 2 1003 2
(0.00703973509371281 0.330535046756268 0.349745830520966 0.312679387629053) 2 1003 2
(0.32164441049099 0.436899099964649 0.109053432475778 0.132403057068584) 2 1003 2
(0.149114487227052 0.260069653857499 0.324864288326382 0.265951570589066) 2 1003 2
(0.153803495224565 0.52620943961665 0.0433961176313596 0.276590947527425) 2 1003 2
(0.326443267986178 0.310885414015502 0.300055838655661 0.0626154793426593) 2 1003 2
(0.10789280757308 0.00130237406119705 0.811188291758276 0.0796165266074464) 2 1003 2
(0.129412904847413 0.234122964553535 0.0606082985177922 0.575855832081259) 2 1003 2
(0.159858158323914 0.112516331952065 0.452287115622328 0.275338394101693) 2 1003 2
(0.102107784245163 0.177604279015213 0.216600938234491 0.503686998505133) 2 1003 2
(0.280472498387098 0.00628477521240714 0.66563928918912 0.0476034372113743) 2 1503 1
(0.404879931826144 0.275122571736574 0.0688489899039124 0.251148506533369) 2 1503 1
(0.216193519998342 0.157330989837646 0.365296809934072 0.26117868022994) 2 1503 1
(0.073654872365296 0.684658145532012 0.0399016463197931 0.201785335782899) 2 1503 1
(0.312638613395393 0.55042436439544 0.0269039440900323 0.110033078119135) 2 1503 1
(0.0478938948363066 0.672076570801437 0.246237334795293 0.033792199566964) 2 1503 1
(0.067889598198235 0.0968248243443668 0.137505501974362 0.697780075483036) 2 1503 1
(0.108414629008621 0.230431885458529 0.224631568416977 0.436521917115873) 2 1503 1
(0.260208876803517 0.553206688724458 0.0887041254900348 0.0978803089819896) 2 1503 1
(0.898891013115644 0.0761336740106344 0.0107628614641676 0.0142124514095535) 2 1503 1
(0.0823600301519036 0.151037433650345 0.344540172722205 0.422062363475547) 2 1503 1
(0.309323638211936 0.379572580102811 0.0598913528956473 0.251212428789606) 2 1503 2
(0.799131248611957 0.0448318775743001 0.0302654192782938 0.125771454535449) 2 1503 2
(0.259608187247068 0.125078174285585 0.544318761210889 0.0709948772564584) 2 1503 2
(0.142322009894997 0.198006608523459 0.383354569785297 0.276316811796248) 2 1503 2
(0.281617742963135 0.11600803118198 0.0371644790284335 0.565209746826451) 2 1503 2
(0.315102682914585 0.393753542564835 0.20550205744803 0.0856417170725509) 2 1503 2
(0.274025852791965 0.0625439570285615 0.551172737963498 0.112257452215976) 2 1503 2
(0.463193348608911 0.0759012913331174 0.12360363220796 0.337301727850012) 2 1503 2
(0.246808232739568 0.335014562588141 0.305658751167357 0.112518453504934) 2 1503 2
(0.129459253046662 0.0761021887883763 0.0226738299243152 0.771764728240647) 2 1503 2
(0.0657812738791109 0.22145518893376 0.599994922988115 0.112768614199014) 2 2003 1
(0.106726253405213 0.460821764543652 0.152852179482558 0.279599802568576) 2 2003 1
(0.225391817744821 0.353752145078033 0.134067326318465 0.28678871085868) 2 2003 1
(0.0461347247473896 0.739646868314594 0.104987770318967 0.109230636619049) 2 2003 1
(0.225224944762886 0.353236785158515 0.138950199820092 0.282588070258508) 2 2003 1
(0.271740803029388 0.0613920846953988 0.194979545660307 0.471887566614906) 2 2003 1
(0.535677962005138 0.262692534830421 0.150529191363609 0.051100311800831) 2 2003 1
(0.247833848930895 0.258163542486727 0.363630529027475 0.130372079554902) 2 2003 1
(0.0206465581431986 0.145656167995185 0.168702338356504 0.664994935505113) 2 2003 1
(0.704260136932135 0.0534367337822914 0.179639993701109 0.0626631355844652) 2 2003 1
(0.0503312144428493 0.264239632990204 0.629249779507518 0.0561793730594292) 2 2003 2
(0.276864823419601 0.128754346631453 0.29603838082403 0.298342449124917) 2 2003 2
(0.0268603772856296 0.382397598121296 0.305341160856187 0.285400863736887) 2 2003 2
(0.252628755290061 0.380165687296509 0.239003718364984 0.128201839048446) 2 2003 2
(0.215481786057353 0.249090485274787 0.468875667545944 0.0665520611219152) 2 2003 2