/*--------------------------------*- C++ -*----------------------------------*\
  =========                 |
  \\      /  F ield         | OpenFOAM: The Open Source CFD Toolbox
   \\    /   O peration     | Website:  https://openfoam.org
    \\  /    A nd           | Version:  7
     \\/     M anipulation  |
\*---------------------------------------------------------------------------*/
FoamFile
{
    version     2.0;
    format      ascii;
    class       vectorField;
    location    "0/lagrangian/dsmc";
    object      U;
}
// * * * * * * * * * * * * * * * * * * * * * * * * * * * * * * * * * * * * * //


41019
(
(141.3384550914 -614.838916975597 -365.643737227399)
(446.189670896842 -278.260639238406 179.723390286415)
(-163.835352664795 -6.66758559157283 -702.084679589573)
(225.528673187713 -569.799919387962 217.704694685286)
(193.16423880062 -115.144975679042 -541.677962229306)
(-112.14039362002 -18.5931168761738 -399.952342616765)
(-399.070457892789 715.27673552193 445.972222643377)
(-1127.45124060303 -612.925388308082 -404.711713269463)
(559.020344938274 409.401581187769 -462.716720277933)
(253.316795839272 933.808008366753 -431.817657652123)
(605.3686627202 268.399544819202 119.661379256881)
(92.5081219965351 -365.595711464288 -221.82374006878)
(75.6624316699399 -580.012046188545 276.345926498838)
(-483.911775002947 -1013.77889419535 -531.986916132661)
(-1226.3209872494 1126.51472012156 -124.963577632177)
(-513.512635096125 -349.209695108055 -519.752597872933)
(-15.4118353795898 470.027210657431 -136.416228217542)
(-117.128091538257 -276.918416616414 463.985054835503)
(125.94759534777 606.208663112869 -305.099325058519)
(-128.523592628058 1124.78509036544 -600.740875545025)
(53.3339999463296 101.926675139162 191.968829855355)
(-533.355335242187 374.794568829566 -856.130349163957)
(649.359376066762 23.1083128638614 227.108985288238)
(184.328042448141 -187.329358907415 2.18636133565934)
(532.227803955677 -363.580352948975 740.26526176243)
(583.456238574635 -495.512010509589 903.200167274707)
(-425.466407300892 485.347906613606 1030.93679163099)
(853.329711431558 -308.935011504751 -320.225974863323)
(310.488274168216 -175.086599557354 333.407247533228)
(-44.7859610261677 64.9230054257763 -795.205535975101)
(59.7451318338224 189.497740551013 -758.441013899055)
(-896.7946528934 343.473935737157 -97.5396742429425)
(572.489909929414 -277.718592525477 -302.305428309988)
(-1096.22657509234 203.963108337865 -590.558229170693)
(-327.666341058593 306.001973074779 823.884857371245)
(123.485162187403 -695.751696217999 -202.119922698357)
(714.104305471544 21.1291696858149 -457.833426285573)
(-85.2689863604959 32.6539619217904 195.529170374604)
(813.843419997329 -178.939920585484 27.6924095427997)
(82.2967062231346 -54.003780478726 -857.823866926765)
(911.533320523978 -79.7246735462255 760.485038491966)
(-685.584913415856 80.4631549252672 433.01339869935)
(-94.8798663964765 411.941885274459 -247.389241738026)
(-114.441284085251 -41.323651255187 826.392279781043)
(-153.164930344896 744.764936437665 20.7227169669669)
(-442.108595121567 460.196727729508 804.146108339119)
(-683.615355206497 931.201217616532 -206.795253485953)
(-610.766210733653 373.444732350158 209.267223494644)
(-14.2686152536661 92.7254027543189 521.489362264136)
(-644.991608444077 -702.171843343213 478.530690916293)
(-118.315473272424 -649.015831540303 -557.966505637876)
(504.520702783011 128.854135770785 373.078204632072)
(69.729644573279 -2.6769296023039 -645.329593200335)
(292.027430822979 31.9020011693673 1183.10682724734)
(-499.710666979038 344.249257447855 25.9838082680122)
(-769.963394251754 560.473452819065 -239.186459699258)
(-1376.42350481705 481.546550381038 247.180047399096)
(-729.469197007779 -199.935163360184 -282.371748110301)
(82.2383817910956 -309.832746877597 101.294179298714)
(-682.709348264821 -35.9749512075097 674.373000091276)
(-474.622193875665 390.538531196798 -410.090435629355)
(193.140019504094 -83.2649902447991 22.4370448823027)
(938.40328340844 109.417493500757 -244.474341269856)
(-478.415647148195 -504.336733237083 257.432835058831)
(-586.134588396123 871.051533154242 -380.33443594414)
(822.714744686086 -267.153085291637 663.999164881164)
(25.7052236857489 601.166898846994 917.951348710056)
(-599.842848907377 203.707341057182 287.591902067869)
(815.381780525401 -886.685290431609 -36.6833568224201)
(-317.271989699645 183.775685197944 -4.44388208179706)
(25.3156547399591 -12.5197316480759 -91.0133433590161)
(-1025.75676192579 -549.035409718732 66.1697710889415)
(-26.7815052733489 120.345459921358 103.952028426822)
(-93.6379383364777 -634.817310881828 26.6144271020902)
(337.249535295884 781.401865429055 1022.06193990523)
(-127.506729026423 -386.455001743128 -580.597563367118)
(34.98425198729 821.777180793589 -205.638797365464)
(187.007071742267 598.287202045076 705.605413196522)
(342.247459655594 1102.72351295597 149.793981741304)
(-798.255330967282 383.872282731745 -327.877946026358)
(618.924772219349 -655.594963723485 341.948546152022)
(-307.655323419962 242.058818126457 -737.8527723013)
(706.317779390478 697.331388749039 -508.852401547722)
(-542.437670827548 -564.911834373719 936.117825542427)
(260.766323457725 155.967473046311 105.656004420655)
(-643.926587410259 63.0417000540954 -257.451892815361)
(349.066194016752 -231.002591357203 -1149.35773348557)
(-112.307036387672 -817.267223801466 200.214211598706)
(-459.26745448566 799.202022327796 71.9329698191306)
(125.388661635158 91.9885434421919 161.767805792055)
(-358.651556372327 141.127810120009 303.361783802612)
(249.894504535509 17.0288197519772 -56.9687697750811)
(-716.363201567648 12.9542998568626 -45.2649598791354)
(519.244885117082 -45.0711824519931 28.319217659467)
(-508.92711703793 1090.57541130612 -72.8689310692663)
(-91.3940750298525 -598.992466522622 647.495703901168)
(-47.0248127984214 -3.21635485122368 64.4219235027178)
(-671.424019735216 -188.873919611195 -481.415225624542)
(-400.124050475298 -721.958071693442 124.05553969948)
(457.672088237681 180.129834928364 -14.4101779299996)
(16.0794048225717 457.449409832045 -305.955826708954)
(-388.604951192267 467.195484539331 333.687593901335)
(199.72984974965 6.10134122916526 216.776498636135)
(817.070092852407 -154.295094743778 660.849327715216)
(376.519854018826 -1173.42485614012 683.644634322707)
(-586.562515033761 583.571923753163 -534.410063682298)
(50.6945112117634 355.178312620782 414.092164170122)
(-414.626659888309 -268.490040829307 799.25595382548)
(197.782443501085 431.412561938215 65.4544656429944)
(399.788302025845 385.425327523501 415.847950737535)
(-45.1495981835043 851.829944456785 -17.4260725370968)
(-125.287865437735 -677.310663335328 -348.756637897374)
(-322.91150540633 -254.232142096813 355.70523340522)
(-408.981186822897 -640.852135052991 -1183.97373358682)
(1077.82093103832 356.224511941597 -93.8799764137213)
(-467.282115210911 1.17930645549086 318.718455309557)
(522.830503011123 -104.728997255923 243.627243819251)
(-190.98671761057 112.137377329096 -182.652547197571)
(-108.316514823175 197.204793154641 715.282406553082)
(220.697296954074 974.649135733051 301.88731122854)
(-29.2931008876712 -54.4187080007178 -1365.1483130378)
(1124.8352607846 8.80490045480472 280.19840043906)
(-303.418817222736 -214.066752904908 539.086943583201)
(586.458924762057 258.490418379975 280.170875364948)
(351.4977362319 147.592681199011 60.8659985889361)
(255.297890664524 -319.680488286899 99.1460782418903)
(23.7838683623896 -243.228816185453 -331.865899022132)
(-582.700000071942 365.490719403317 333.129682273633)
(-250.559134931422 248.752023017598 568.279106119019)
(792.933441071659 771.466536463485 -10.5919965021929)
(1000.62268068672 -669.889376786096 -371.005827859685)
(-172.755159207406 -332.435528748902 -1215.83062704448)
(801.16343155689 -105.000198059804 -526.507566585741)
(-167.415506788949 -263.321160011018 -725.725567842892)
(410.622999752049 670.645159092998 -83.4411055660319)
(-191.14094755606 13.1072425358283 -13.5376679117539)
(-719.404197471649 19.7286101704358 106.06876052322)
(180.66660797902 1323.20236835819 -427.736741355352)
(-103.409930330905 39.8373157762737 -69.7145982526743)
(-85.0477836896992 -258.477033977716 -143.288840972143)
(514.344556446217 -403.064887653404 383.58532498605)
(146.366785591021 112.970268049927 243.663940413558)
(250.642296955349 -248.91105764308 -21.0602651085612)
(676.067668883268 -152.92963868829 -199.59603313165)
(-460.291731150667 -22.8243856344605 -70.220764865254)
(667.681415999055 -145.47401427826 959.942149755332)
(198.379745839406 -721.36797359739 21.6824713662957)
(0.832405988828317 267.139570372607 -299.001631736995)
(35.6104720412476 297.337705297526 328.542281851345)
(-549.225854050339 176.007584190331 643.742063334886)
(-166.427033347284 548.316383158976 446.92524629134)
(502.942287605757 -186.473223567618 404.075512447034)
(179.966969209971 -941.825678693122 461.426665458388)
(557.381337781069 -437.174508552009 -362.299315341978)
(-469.48401685734 178.540737577597 -606.774765418371)
(-1046.9173009087 539.497705880382 -197.065413763296)
(-323.542930871917 228.200428764576 -144.536248838539)
(-848.596730398149 -839.510254537273 406.85696678559)
(65.9621388938576 -1000.93037464645 -228.709534260316)
(129.485970209559 724.761637071511 569.945833166895)
(17.3047436482036 -461.003592624414 333.155704336625)
(-237.566948696715 23.5097081502862 -477.900078790286)
(-163.117264332611 -434.955780930913 185.648293207368)
(806.550556802377 471.786049500228 -72.3581004127585)
(-1232.54526295497 1348.37410319141 373.472953718757)
(470.869682842887 -212.176871356066 -501.591039953894)
(44.3902662485395 -145.066521434742 7.82162641764534)
(-48.0503194673827 539.691367354548 412.94405806636)
(-425.971809206272 -264.95139374714 1755.39890948001)
(-1112.8844900411 2.22144878771455 110.732469694086)
(201.860668047513 -200.093412105439 -99.2404141388254)
(312.30326644433 289.547540756778 653.948453576247)
(-161.387248931576 461.319808514819 -99.4016681395016)
(159.856979903069 -745.128006357741 811.792373589417)
(50.9285488947719 609.965218788517 -180.642499678535)
(-299.778435173054 -304.373095931279 -528.847462862874)
(334.412397327997 437.71185946316 -246.694414143936)
(-282.152175502241 1144.30590059514 684.597405571961)
(46.0228999735875 -273.740164678803 356.706784091047)
(141.075372213882 -1278.09002741867 953.081213767725)
(-399.788295387593 -671.570448073691 711.171144279535)
(610.279514528474 -3.34757179036608 230.984182506782)
(133.390462444734 402.970525582872 -489.88455816117)
(484.678794158714 -752.654249468137 307.706603387203)
(-359.91488552275 -138.313709105477 -1.95260332693011)
(301.492785055557 304.811863374786 -267.759080476296)
(262.761191462666 43.0334668967731 482.564137743881)
(-654.905996509671 165.584483148208 99.064588317375)
(1173.57604052727 367.921013536018 227.499391532257)
(716.374891718464 713.521475316849 125.013344914781)
(44.0325774740716 -239.975517045265 -289.675358807475)
(603.053982886005 94.8362948123155 -269.736415613381)
(103.088160277591 -105.561715829114 1527.46141554703)
(342.312853181084 -650.881805205375 -684.141360820471)
(-185.882221342943 -48.8724426819859 106.946690223832)
(75.2418468525099 222.655157788847 -447.497689870305)
(30.6917377209513 -574.325425004564 -325.494252693964)
(1135.23157411443 665.0586415197 -85.634868099798)
(556.375669524539 -955.63083591078 -527.564777763263)
(-383.912190457571 18.5821067972547 -98.5149370189519)
(-300.290268741886 -641.794195910496 -389.847640628288)
(-422.032467854819 -491.933648687716 -566.192624043448)
(72.4304942371632 -301.777685913794 358.506152520437)
(-56.6590812739011 -253.974567296601 -548.63830822545)
(-661.884780035995 -1135.91149341358 -219.006225827559)
(-73.7422663084518 -791.453517924967 -48.4207503916342)
(-570.41513812732 -224.900829438222 589.217583977844)
(-97.0545609384605 -1467.36136955817 -147.192905422834)
(-580.816179993894 -116.742891908284 185.112153126193)
(488.40328335493 611.3300410955 -25.301372255018)
(-31.0552752992798 -1143.33747560803 -501.077665637865)
(-272.043476575134 -81.0430841775863 452.728589841527)
(-632.704926243831 -155.148816913795 348.439037442331)
(357.66297924509 -392.322281948852 648.043317795875)
(123.781626618344 -414.603503314039 -17.0770465660069)
(379.373847775962 290.932931129626 91.5715103936867)
(-114.405895228431 -956.139389943178 61.9352977365738)
(96.0179130247993 411.398656023976 211.510701249121)
(678.870221940365 690.995088821962 -796.000773417339)
(-116.824686316091 292.891648814431 -732.691024180223)
(464.621849765794 -165.242199298479 -980.441580030222)
(-318.008192762088 -678.111272694087 -503.650956665276)
(-203.925486945136 362.131054924879 204.890303822816)
(-414.551995327319 31.2845782294107 839.384049891627)
(788.024270351742 -525.024395898247 -109.710682403215)
(-482.400549279165 190.500139355212 172.174717092304)
(318.398508131311 123.631028636367 -436.074306043629)
(-603.910441365228 -240.571008329305 -111.285167084098)
(-203.227163310363 -48.5455463242168 -156.535373388427)
(128.960337459374 -273.359980847127 -404.181560814222)
(-157.265816406271 -516.100365064758 248.654116463624)
(-228.780880593199 261.174291988882 150.711659008161)
(275.496329119504 856.778236833153 353.638539317829)
(-1017.34176544331 33.8833303596332 -582.566624267728)
(310.846254324867 -65.2138620293381 807.525479457132)
(1295.06496594694 -144.603027754208 21.8334373682606)
(-90.8653654146911 -487.494390330557 -205.775348982308)
(604.589343791048 295.838829909982 -355.411632808376)
(18.6457565743645 -936.11663325577 360.169111376659)
(-645.028108238602 216.85771124168 280.199738946314)
(-654.91747042677 170.325983675704 -281.345668770344)
(173.750148564199 703.805782778608 342.082703724147)
(-337.471350388704 -382.033334523057 -20.6976069127787)
(-60.6640394440084 1026.14421938333 588.787705119993)
(-1368.18327866966 541.328626390999 -99.2329231342143)
(-208.63048911383 294.97186810416 -798.811000012949)
(-237.797891725879 -546.572468909618 -236.719617237595)
(652.939568813745 583.799917140644 262.785386888856)
(-480.487361680107 6.13066213464784 31.2112567881561)
(-309.175061081634 68.7181642810992 -409.506571133754)
(809.710677034484 -672.911986341526 399.514647936573)
(509.689501236973 -460.931380669511 110.244189728486)
(289.390336216956 -108.496251763208 -263.525953373167)
(725.557509737732 -260.943506899322 -167.032899355124)
(81.8600115256647 -61.0138379862897 745.641829487315)
(592.152134789689 -13.2010575531693 -140.968601116149)
(1119.1892406956 654.798484543228 -356.003097107066)
(598.958250209173 -203.152800234426 -1140.64662034076)
(-322.218991089324 -178.759646596408 131.277934989768)
(-1.82016816059636 23.2825286324857 -161.759669369723)
(816.726670604161 -67.4500669662906 385.020901257307)
(-270.736839823475 -15.9848684463901 387.181334910785)
(-458.187844644033 -290.927203660263 17.5456416657871)
(-220.843099826968 -452.982962292353 46.5790278553021)
(39.8575453548527 20.3470435429907 153.778517082154)
(46.7917664276037 428.94898699437 -603.690184650473)
(-832.770810590049 841.297427152786 -978.444009432145)
(-157.57962563511 9.71270801072645 -1107.48310467249)
(-52.4482744976319 -383.573007706357 -785.889047091243)
(640.275375528683 112.274083363089 66.5586044199859)
(-177.512236919307 57.9513823479613 -229.602389650488)
(16.2079491413933 -689.06324548878 -150.375159011037)
(386.058486663354 -991.791501936159 791.351957037727)
(1431.2951292997 1014.13232333631 31.5216986648788)
(190.601628723682 348.98840540626 -162.458501183598)
(375.502638542793 -497.563503412895 -191.249990056322)
(-443.465110338281 -71.9221328101128 106.625418511203)
(656.331579925614 -90.3057778862097 411.172779538171)
(-610.224861584899 750.60479007675 -6.36844081661095)
(21.1891261239352 172.336721231384 -571.337085404529)
(2.51435003492627 -153.930713005188 979.669609253807)
(640.9009005045 -157.273081104802 493.279220307103)
(149.350328563953 -590.02921901997 -303.92129399637)
(-366.869828044999 -429.63149081847 -364.508369065563)
(551.161410211345 -386.352957174321 806.286141900849)
(-289.501065348044 -1531.11697926599 -298.851355254711)
(-305.888496378052 -298.653026422127 -342.82986306445)
(628.14072879469 560.968189637494 18.0035126749427)
(135.92490432503 -200.891011042482 457.356575487377)
(-1241.09208273421 58.6560273620772 525.502753665515)
(230.322896589652 230.674872236966 138.678453242499)
(206.712334532294 503.054386584673 677.205982498741)
(516.931038970771 211.939592277267 -2.05217071495072)
(-704.328412779187 365.190147576833 -494.772766882567)
(157.289080067595 -201.941845844763 601.799792945461)
(642.938976523398 429.870925619592 -708.187269077998)
(107.117862640598 -142.421228445281 511.381863478663)
(267.559351884573 278.384107460054 710.318780114031)
(197.739218897171 -1195.33518742137 -540.916282574381)
(-735.05442972021 -1041.90042854116 -49.2092072798941)
(-162.725312913704 323.096711596505 -134.042108316474)
(191.539602236448 1198.42032738873 -557.281538631645)
(876.87626916442 -285.887740334425 -20.3058931978828)
(-227.68174573376 11.0416757324485 -398.013256539767)
(-1588.65846467235 75.0564579312997 -202.203438376374)
(283.187696280049 -465.825143700063 -591.350633442386)
(374.067739750675 -577.095545648191 -819.071784627437)
(883.483906736546 413.914763814836 -435.780002656616)
(110.688757234039 -268.500323644437 -603.983702792069)
(-804.181307633461 -2.75443688826834 -434.286634827245)
(-545.901448497526 503.188197197724 -21.5581381542277)
(-508.589730421555 -363.746924866098 379.152493444334)
(508.875998238652 705.863935946067 281.119432697079)
(228.207021036188 323.535155519407 345.21199339448)
(76.279811658697 237.459875412456 877.096820455124)
(708.907704137546 491.259189246532 -168.322796561916)
(718.275172313674 -429.961539247812 506.772575095039)
(-704.893479347511 -111.958310765849 -220.519273296861)
(173.474120111079 -334.968175483218 23.6640713305926)
(-381.316144246263 -200.885277571224 174.821502361874)
(591.773709281047 471.521416868999 465.397594520359)
(-110.807019979724 348.891273862971 -97.4961026233275)
(319.928776330959 79.4067383060304 47.0026002760224)
(-411.109884670208 -810.868272606946 -273.961785341295)
(-564.378603467424 229.224081487373 452.966580815496)
(323.928515622854 -352.326944783673 31.7053983878001)
(-193.282192938226 463.278251558858 -1327.72519642544)
(818.951430098866 -114.269565399751 -618.473665098268)
(373.816760068396 -1158.6059533773 -161.965152047978)
(4.20148252326108 -10.7109740616263 -462.077600044029)
(631.617729011667 -537.150818453506 302.474756219279)
(-949.094444691767 41.5041895523269 -273.98680282002)
(236.17629383147 -684.848607946179 -897.7709518466)
(592.343136361989 -538.69658458876 179.031941667488)
(-767.95935186292 800.330151147533 -199.51317210124)
(219.288106841083 -526.053708733608 -964.443575222785)
(140.605982197927 -587.732041802184 396.165591180875)
(698.145893539111 972.463406709039 76.5796544251898)
(346.328796200266 73.7546868072238 668.105539371493)
(336.559225343067 908.582251464843 388.018924286465)
(-678.777343429975 -819.509538927902 547.561600884848)
(-77.1624682172248 -748.498756995792 -119.007634525843)
(-849.250585252765 408.130271791985 -365.431573031614)
(338.52888837212 52.0410714477254 334.173453296481)
(128.620845592753 -17.7915850317499 -362.403149430625)
(760.794202663155 -247.323330895936 171.896448879676)
(-540.790662085647 -330.098075596388 -135.532373066694)
(-445.937585233656 -51.3070428923855 111.308244802862)
(-802.982316841857 321.556476317281 -368.108532767024)
(-112.5552051056 417.364762612151 -38.3246774414973)
(886.850124322644 -589.95161749946 326.449336124246)
(-287.282721138786 -190.044813731459 -119.236814364322)
(521.870969450224 -391.932378432683 881.070345485937)
(475.99070992333 -561.768967881928 507.5180769257)
(30.201553715238 -186.394400468542 -378.153305690155)
(506.985157930021 -506.363119468334 -363.364757831446)
(392.248977030978 -556.980878214382 -624.959638649407)
(-637.42039496087 632.835644203865 -177.433416650721)
(-30.7188975310448 -125.045191106996 -235.712658116081)
(-249.920769383458 -337.131657800405 169.008994528777)
(-379.574897983551 626.150542955954 273.495160052638)
(361.976120759898 322.839098336294 1101.29115046437)
(396.611854205477 -68.4788166037744 -300.141928098011)
(-792.20952365277 -462.787915490657 48.1322212399535)
(-1141.20935753575 -592.086820175562 -127.155622850555)
(438.172425721238 443.948171842948 -563.709611907958)
(41.5016420137195 739.533619395099 -204.576703697206)
(-21.3277216649246 567.638210601169 154.706561093361)
(-232.77195208037 -569.525810029644 371.755815853856)
(362.609718619573 -573.879111582523 -720.593234362005)
(602.715054376967 -592.826152618696 1062.54516065193)
(-545.068266140278 -318.667218590764 495.823715870155)
(-320.597843010696 -445.456718776406 -579.388659823371)
(-495.358808403752 -293.59921070316 -1014.57035556747)
(59.7823419535114 -615.046288817633 1157.25534250427)
(-106.539202530222 522.782927863204 -930.104787480184)
(-500.308076165182 352.314925515034 90.4975515227584)
(356.400859932543 -185.478607602457 594.637130640682)
(64.6494265731555 607.860224588863 501.763012270043)
(143.764573637263 -63.5275984084927 -678.982099763527)
(1280.09278687278 162.491401699993 -387.326500412772)
(423.656960724113 197.082693255195 -59.6723106012967)
(-388.109562775073 -105.640464595009 -144.330132230343)
(-59.9996219386209 19.8372122988923 -52.0974724305543)
(248.915210204477 871.804160590731 -58.7943986373868)
(386.817863659826 -246.309138365596 -94.8286177207685)
(136.944787495099 -7.11817404775102 -354.107575006539)
(611.59907566367 -48.7968355868574 261.601138863345)
(485.026665360767 -1075.70742379639 98.7703834797849)
(236.496901735203 -384.289152070014 231.901567943744)
(-198.155783153101 -687.851905633169 -404.120540946068)
(-185.289807222584 371.39484942101 482.068188180141)
(-225.312754089186 338.183514982409 1143.31059912604)
(-211.144998204851 -104.866004464026 -988.467632137585)
(1076.57943256205 216.7751253211 -1019.02814695427)
(-1128.24422968426 -823.36266715362 -292.511559531567)
(435.743878105516 410.803664882003 -350.516608913001)
(7.17238765620295 -148.68355977597 -995.023275182765)
(94.207466993462 71.5728156597844 199.803471912994)
(-1029.09590564217 -890.716465830984 222.450897490005)
(-583.105074220566 -569.061961783589 359.263030303991)
(145.002913908427 23.0059269141142 -725.842762285976)
(-506.127720679109 620.731208454928 2.81098084156944)
(256.100080883471 753.911368286331 -328.987295018616)
(-219.289351627592 440.708475306995 864.00322578543)
(-304.217349807776 667.677839234692 598.48221996897)
(-687.53182225202 117.611726474282 -43.8382150301269)
(-18.416480106362 904.958666655916 555.728932036216)
(-0.582865469699931 -351.988065511787 494.090669842882)
(307.857330942812 842.012214577886 155.541299759739)
(-616.221320221263 -141.124196605136 -34.3710143100934)
(99.9407253291035 -247.336123555793 -385.699814892323)
(84.5278602278548 117.570022435499 524.180459031541)
(-365.63804838176 -69.5991038492905 473.264954471837)
(193.168765968329 -1043.48875518186 6.22206182485917)
(326.143246215877 417.131125611683 -288.854457600965)
(-217.96434583866 78.9425632184732 218.299428388925)
(-401.978861279095 273.160944771163 900.349023060116)
(1316.67155386745 -546.333558037776 99.7596793128681)
(915.75654195334 -516.587414579673 -497.98471630421)
(615.241247430546 -276.089470102266 -930.607489340158)
(-63.776719067188 242.2308681407 -215.846226148119)
(-161.337860474722 -613.694265443694 -169.977338525966)
(-548.177316375642 306.296299882214 364.51917357993)
(738.39107338728 11.9492819141467 -416.071700858693)
(11.4931364392515 122.506498760298 -702.409589798001)
(346.457939431032 373.082736407347 272.584624228269)
(224.229626127571 -1164.30035498622 -555.784823877238)
(-296.939190659695 403.60996435547 -409.291660345794)
(764.144454192817 -985.240539181914 -771.990965028116)
(-194.238684504834 571.926925136139 -784.148539200598)
(929.65353450504 302.397064227121 549.752511915017)
(-474.135468474829 -234.931845599197 161.050476668761)
(2047.69314403715 209.341688200192 -346.664473042097)
(40.5210382996384 -442.205115470263 365.030319905324)
(-290.328409714014 628.1290388367 269.381350408959)
(-1058.98107700774 -344.572255682673 -1220.33207653999)
(294.02617051823 233.087721119266 -394.554371167178)
(334.56767050319 258.357029818961 -380.494821176078)
(397.296398036502 -1000.5243859871 -346.684006273792)
(-421.191858555051 69.9963854954975 451.751879998107)
(467.365208594975 668.80461505581 -255.612331563244)
(-263.312409652036 -372.105604551088 -165.183515555613)
(169.127401387168 -62.6192979281626 -583.177057782544)
(213.945643302462 262.734486312998 -784.603331297759)
(-219.353407186424 -809.94286906731 -903.620469222054)
(451.992063307302 -348.680549329136 820.072384716459)
(-829.865816754064 -409.546450255983 817.879890168519)
(1039.14520636795 -776.00903160962 354.960754390946)
(1185.25315169828 -444.404349859499 429.381377339578)
(-784.945836448399 845.96799598254 -220.081207763314)
(642.570820666776 -205.130576157146 -419.763997875648)
(-567.556172747641 220.018785010127 -360.54181022973)
(598.807999080583 -740.164277472766 -157.750354314254)
(1374.32789246335 -1708.79681337961 -68.0474838537116)
(-108.647651698957 -299.710877742513 714.521813655006)
(-460.626079555281 -963.604715656591 -408.149634752154)
(782.09852848513 -137.880628152207 23.3469819123198)
(-333.645699596674 1011.58212036104 -489.595787972678)
(397.231979378802 -694.007358970037 164.717240600871)
(79.0262369055609 573.932074108933 1542.46123434455)
(-623.149967485629 -105.201712102686 -1014.36403388393)
(-411.193726331662 321.872147850926 814.941728940017)
(-45.2974163228703 -638.977885049404 -339.868361254311)
(-532.086585715257 25.4178627523282 -645.865295720571)
(-103.239903231463 532.065607300758 360.976566982848)
(379.542015484374 -595.481579735323 -185.94471501032)
(-261.977498970499 -354.301007542033 -299.038215592785)
(-283.405531459708 625.347372230479 131.199665622806)
(-124.936003396979 -290.17015617105 585.276574051971)
(-197.141673601203 260.320397580429 -36.1513317476015)
(248.908025009998 78.4200453645839 -651.749320509664)
(114.029674656029 -529.843494518627 -29.1994912533741)
(309.185862502265 99.9110707399377 -68.2448177080628)
(48.5083555363739 -485.285034825292 -36.2645570146392)
(699.471296824858 437.032981743304 1473.8653086498)
(-116.900544939035 68.439955810901 -320.286033243647)
(641.81897240475 830.110850097272 -372.477643319342)
(-322.847663257308 -161.947942629069 175.176672555111)
(1056.23733261693 283.64588032068 -526.217351152685)
(-6.25861490912556 904.535760687864 211.075295960381)
(333.2369236123 980.544776944509 670.217999896214)
(-88.2641360269853 -353.335541020354 -52.9428301402167)
(-349.026398695264 31.5263128547031 34.7411252733243)
(377.558836682804 266.994652943014 167.680400119702)
(779.037986711901 -96.5219986697432 -526.700372953161)
(-279.223724185521 354.342198850224 636.777067360159)
(391.018690091435 -666.670215300083 321.240264709349)
(-626.038031431328 21.1257510918715 249.370180069368)
(498.433931614685 268.247074277202 -67.8009478002945)
(-176.035930887799 -276.91221740567 -417.296263849284)
(1147.98475240732 -727.770892312287 -268.894826122086)
(750.208734066069 -0.630646067724993 564.133902697504)
(-228.414862586118 -736.004491874399 211.027523602834)
(70.9474132419584 -216.659709486499 1140.89855429672)
(-30.5299065646769 -25.3244486511032 244.130426603471)
(709.825147170695 399.139187547504 -725.996661692189)
(-357.021353521035 -160.518914097752 -376.150437100915)
(-802.939340302472 661.044099048289 -98.506687936195)
(569.256795500598 131.410629221009 -2.44552915140113)
(-180.20595752162 57.4396239186753 -546.689346641562)
(61.7045522841547 91.9283045258777 622.048104860286)
(714.346210849142 -207.644188569024 225.004394390423)
(-236.019804027667 991.904411787441 346.710350513713)
(49.3798034246994 -287.114199745593 396.278041901967)
(-284.493102377313 -359.438599272093 539.293497286299)
(827.575049727953 -262.711601995213 -1183.57496322817)
(-641.290958499597 403.543685451539 -383.267024665444)
(-124.330074095981 363.796678272173 -710.150465982558)
(558.898367382649 456.410365054824 743.954580183737)
(-112.29115829288 181.482921370387 -312.677934080119)
(158.629338288374 -202.996717135991 327.549055367639)
(-214.024479522397 478.0084432889 663.1447310655)
(239.193301527344 366.11407015126 378.865896770208)
(-1034.87272747325 54.9937230568844 -1144.36303472141)
(61.9738833187433 -172.182652300923 -424.923204087836)
(-737.855485130053 -302.218697004424 373.152184411411)
(-174.937501948726 -115.762866659663 244.952374356847)
(-897.602913870419 580.907190758931 162.837137088632)
(-87.0881247160368 497.855213364515 -1007.37325535214)
(-69.0094096212969 -838.083127797181 717.157163998358)
(-672.339460207142 -364.805007837981 443.109169265581)
(-31.5060969791158 -626.867739207 -83.6312881016855)
(-218.463220658457 886.48474281357 -11.6033069839168)
(-194.764803005425 -13.0752799294426 366.947918812572)
(219.037430711147 -494.880772575193 -499.38424084745)
(243.354705152288 102.501290233538 6.8930001096913)
(-433.408074725876 -117.172265295975 407.228347455558)
(-295.2202986445 -945.578769186207 -194.39144777904)
(-136.828473140925 403.768436798144 675.924573408082)
(-212.852299834582 -80.5055734670907 411.891935449204)
(201.03645617096 -919.085172389371 27.4728096183326)
(-558.385274157346 183.630649359402 803.350320416298)
(1021.67376234712 164.034402234743 105.518583680999)
(-461.445250222739 394.219628675258 -954.78646426555)
(205.296406722607 703.999284056449 447.719270764748)
(-84.7290098924478 956.838204731043 -423.413526776084)
(429.536168311993 229.69970882112 1114.46764882494)
(-5.60953299797251 135.641814852188 -206.991010520396)
(86.7760485808247 -43.9903252620141 1073.62897671527)
(156.252048247582 -196.43002906676 -378.320621323377)
(411.862444252875 295.860894617036 312.490982187113)