/*--------------------------------*- C++ -*----------------------------------*\
  =========                 |
  \\      /  F ield         | OpenFOAM: The Open Source CFD Toolbox
   \\    /   O peration     | Website:  https://openfoam.org
    \\  /    A nd           | Version:  7
     \\/     M anipulation  |
\*---------------------------------------------------------------------------*/
FoamFile
{
    version     2.0;
    format      ascii;
    class       scalarField;
    location    "0/lagrangian/dsmc";
    object      Ei;
}
// * * * * * * * * * * * * * * * * * * * * * * * * * * * * * * * * * * * * * //


31774
(
1.24367e-21
6.27452e-22
1.14937e-20
1.17658e-20
4.24733e-20
1.99918e-20
1.82282e-20
1.76871e-21
5.17845e-21
1.6821e-21
2.27265e-21
2.44529e-20
4.69325e-21
1.23508e-20
2.32027e-21
2.26353e-20
9.68991e-21
2.51666e-20
6.9618e-21
1.10129e-20
3.03891e-22
1.50564e-20
2.21644e-21
1.89782e-21
4.06938e-20
5.04298e-22
1.10517e-20
6.93901e-21
2.46017e-20
6.92868e-22
9.64037e-21
1.10434e-20
5.77379e-22
9.63949e-21
5.8017e-21
7.68619e-21
3.12831e-20
1.06247e-20
1.88798e-21
3.71318e-22
9.11773e-21
5.43508e-21
3.19118e-20
3.35817e-21
3.07511e-20
1.49035e-21
5.28585e-21
6.04359e-21
2.46667e-20
3.02347e-20
2.08023e-20
2.02552e-20
4.25123e-20
5.7626e-21
2.68693e-20
3.53586e-20
8.72039e-21
2.39176e-21
1.03306e-20
1.24187e-21
6.01004e-21
4.09897e-21
3.07297e-21
2.01214e-21
1.21156e-20
1.78227e-21
3.89414e-20
1.13016e-20
1.95952e-21
5.62549e-21
8.33449e-21
6.61794e-21
1.96658e-22
6.65478e-22
2.56311e-20
1.16076e-20
2.2961e-20
6.33474e-21
1.12397e-21
1.98664e-20
1.37717e-21
5.83763e-21
3.21093e-20
5.10461e-21
2.69612e-21
6.58459e-21
1.51222e-20
1.09111e-20
2.67532e-21
3.42364e-21
1.14076e-20
8.31387e-22
2.35113e-21
1.38525e-20
7.6356e-21
2.42579e-20
1.34188e-20
1.44593e-20
2.12367e-20
1.35511e-20
7.60307e-20
3.92847e-21
1.22919e-20
3.2901e-20
8.25922e-21
4.49349e-21
8.25272e-21
1.6057e-20
2.05034e-20
1.58275e-21
2.03799e-20
3.47166e-21
5.20997e-21
7.00035e-21
8.79686e-21
1.04253e-20
5.9019e-20
1.31275e-22
1.38463e-20
1.24864e-20
1.82574e-21
4.80283e-21
3.52234e-21
1.29063e-20
7.297e-21
8.19689e-21
1.82073e-21
4.66699e-21
7.67873e-21
1.27609e-21
1.51517e-20
1.34958e-20
2.61585e-20
3.12832e-20
1.41759e-20
1.16714e-20
1.18244e-20
5.03731e-20
1.74499e-20
8.78307e-21
7.04772e-21
1.11964e-21
6.60454e-21
3.00198e-20
5.44432e-21
2.98389e-20
1.09765e-20
8.86771e-21
9.12797e-21
4.34952e-21
5.26987e-21
6.34213e-22
2.5636e-20
7.65945e-21
1.13335e-20
1.19434e-20
1.04084e-20
3.27128e-20
2.97198e-21
2.09371e-21
9.70242e-21
1.05818e-21
1.47398e-20
6.28378e-21
1.7137e-20
5.96018e-20
2.66157e-20
3.18981e-20
3.09677e-21
2.34831e-20
1.90477e-21
3.9992e-22
1.16164e-20
3.32032e-20
1.55948e-21
6.63212e-20
8.57696e-21
2.16126e-20
1.98588e-20
1.37268e-20
1.05971e-20
1.14514e-20
4.27454e-21
9.57279e-21
5.03482e-21
3.12172e-20
9.48852e-21
1.71925e-20
8.286e-21
1.66416e-20
2.68143e-21
7.74138e-21
4.87041e-20
1.73117e-21
3.26937e-22
1.04029e-20
3.64722e-21
9.53833e-21
4.85982e-21
5.57988e-20
9.28789e-21
9.27332e-21
8.01905e-21
3.19253e-20
4.72204e-22
4.17236e-21
4.66839e-21
1.87533e-20
6.07764e-21
4.25616e-20
1.2266e-20
4.41988e-21
9.98465e-21
1.42731e-21
9.53916e-21
3.94176e-20
4.98666e-20
6.0377e-20
1.83976e-20
3.56006e-20
8.20217e-22
8.56667e-21
8.19942e-22
2.82132e-21
1.37383e-20
2.65558e-21
3.58601e-21
3.5818e-20
1.20529e-21
7.03973e-21
5.46498e-21
6.55029e-21
1.60046e-20
2.02654e-20
8.53201e-21
7.30594e-21
4.9869e-21
4.77618e-21
1.05679e-20
3.37944e-21
5.42398e-21
1.26111e-20
7.33849e-21
3.94981e-21
7.57556e-21
2.96343e-21
8.07668e-21
2.58548e-20
1.35547e-20
1.63011e-20
8.2935e-21
1.81953e-21
4.5201e-20
2.03967e-20
1.70486e-20
1.97467e-20
5.55652e-20
2.19176e-20
1.99539e-20
1.33095e-20
2.66329e-20
4.41844e-21
1.81885e-20
2.13033e-20
8.58332e-21
2.98752e-20
4.17974e-22
4.9139e-21
4.74779e-21
8.36598e-21
1.33026e-22
1.62276e-21
3.55191e-21
4.91825e-20
1.46257e-22
1.30807e-21
1.27528e-20
8.33103e-21
8.10195e-21
1.25432e-20
3.04688e-21
1.86674e-21
1.19641e-20
6.62477e-21
4.39575e-20
9.72118e-22
1.44619e-21
1.79846e-20
3.92881e-20
5.22371e-22
6.53905e-22
2.54399e-20
6.8188e-21
1.11956e-20
1.17684e-20
6.16502e-21
2.83981e-21
1.76384e-20
2.9124e-20
4.04718e-20
1.23778e-21
1.86643e-20
3.21331e-20
1.76181e-20
2.19123e-20
9.58416e-21
2.93831e-20
1.62771e-20
3.18045e-20
1.04155e-20
1.37559e-20
1.02893e-20
1.67352e-20
7.97809e-21
4.62674e-21
8.2552e-20
2.06346e-20
2.71462e-20
4.76861e-21
3.6294e-20
3.99805e-21
2.12707e-21
4.70735e-21
7.41905e-21
1.52059e-20
1.26543e-21
2.70636e-21
3.55898e-20
1.17662e-21
1.02791e-20
5.46571e-20
2.98261e-20
5.99117e-21
1.67295e-20
2.56031e-21
7.94946e-21
5.32455e-21
3.58715e-20
6.44523e-21
8.13761e-21
3.33623e-21
6.79456e-21
2.28703e-22
1.78868e-21
3.2574e-21
7.17295e-22
3.87164e-21
3.37517e-21
2.74739e-20
3.49625e-21
6.50779e-21
4.79984e-21
5.46759e-21
1.44626e-20
3.27356e-21
1.72712e-20
4.29072e-21
6.0324e-21
4.89774e-21
1.6833e-20
7.51968e-21
1.0307e-21
2.20676e-20
1.91592e-20
3.29844e-21
3.02152e-20
6.06468e-20
4.89646e-20
3.09578e-21
1.94731e-21
5.27771e-21
1.15619e-20
2.61333e-22
5.06061e-22
1.94917e-20
2.33821e-20
1.7904e-21
5.30098e-20
1.41831e-20
3.70286e-21
3.12909e-20
2.54719e-20
3.42112e-21
1.72714e-20
1.44569e-20
4.19859e-20
9.23651e-22
1.37126e-20
3.22857e-21
5.0708e-22
8.50025e-22
1.63703e-20
5.39982e-21
2.93711e-21
5.56832e-21
1.57512e-21
9.61013e-21
1.62995e-20
3.40826e-21
3.87352e-21
7.62752e-21
2.69e-20
2.25973e-21
8.97821e-22
1.5988e-20
1.98213e-21
2.35234e-22
3.56178e-20
4.50282e-21
2.46202e-21
8.63128e-21
9.6475e-21
1.31956e-20
5.78855e-21
1.45385e-20
7.2816e-21
3.20804e-20
2.07965e-21
5.75258e-21
8.39156e-21
2.91281e-20
3.95664e-21
8.52697e-21
1.8363e-20
4.51169e-20
1.25143e-21
2.00155e-20
4.95009e-20
1.13798e-20
1.48518e-21
3.52855e-20
8.20186e-22
2.81821e-20
1.98193e-20
1.12382e-20
2.33947e-21
2.47713e-21
2.82197e-21
1.1742e-20
4.27405e-21
7.15342e-21
1.92732e-20
2.94291e-21
2.21327e-20
3.59308e-21
1.76709e-20
2.09515e-20
6.38153e-21
6.70359e-21
7.12201e-22
1.13185e-20
6.57899e-21
2.19907e-20
1.30987e-20
4.60038e-20
3.09694e-20
9.07282e-21
4.18556e-21
2.98683e-21
4.13051e-21
8.38806e-21
8.96744e-21
2.51609e-20
8.98833e-21
2.04102e-20
1.56036e-20
8.9429e-21
2.15656e-21
2.88178e-21
2.76486e-21
4.25032e-22
2.21439e-20
9.68326e-21
4.95595e-21
4.9832e-21
8.23171e-21
1.08416e-21
5.13919e-21
9.92592e-21
1.65481e-20
2.96169e-21
1.41445e-21
3.38691e-20
7.24734e-21
5.31602e-21
1.74355e-20
7.50467e-21
2.32608e-20
6.21005e-22
1.68604e-20
1.81041e-20
2.84562e-21
1.86868e-20
5.39565e-21
7.54835e-21
1.34083e-21
8.88919e-21
2.32456e-20
9.03715e-21
5.021e-21
1.28939e-21
1.46106e-20
3.9753e-21
1.26451e-20
1.35833e-20
1.73992e-20
1.07998e-20
3.22609e-21
3.29898e-20
2.38655e-20
1.80533e-20
1.59816e-20
1.01805e-20
9.40546e-21
2.35134e-20
3.71394e-21
1.749e-20
7.47623e-21
1.28358e-20
7.49204e-21
1.79322e-20
5.39688e-21
6.10134e-21
1.23218e-20
2.2545e-21
4.41672e-22
5.16047e-20
3.52279e-20
1.22388e-21
1.01873e-20
5.47633e-21
3.61649e-20
1.59369e-20
7.12429e-21
1.22927e-21
2.41159e-20
2.14236e-21
1.97605e-20
7.88756e-21
4.84292e-22
4.98329e-21
2.52471e-20
1.49062e-20
3.85369e-20
4.74061e-21
1.1375e-20
1.60574e-20
6.47173e-21
9.84092e-21
4.11741e-20
4.24683e-20
1.0152e-20
1.88057e-20
1.60446e-20
6.23559e-21
2.05046e-20
4.54154e-22
1.67806e-20
2.52033e-21
2.11227e-21
1.39776e-20
6.18585e-21
1.37828e-20
3.44988e-20
1.78738e-20
3.29924e-21
1.70837e-21
1.26262e-20
5.78672e-21
1.32594e-21
6.76428e-21
3.18583e-21
1.10259e-20
1.40217e-20
1.5972e-20
9.14553e-22
2.52204e-20
1.2646e-21
1.97627e-20
8.07973e-21
9.53325e-21
1.80679e-20
1.44635e-20
3.17766e-21
2.3414e-20
3.12562e-20
1.69582e-20
8.79298e-21
2.70692e-20
1.80673e-20
1.09936e-20
5.10018e-20
3.81761e-21
1.15164e-20
1.33189e-20
5.79592e-21
3.48575e-20
1.68954e-20
3.07644e-21
1.19198e-20
2.95852e-21
9.7403e-21
4.69066e-22
2.18497e-20
6.43867e-21
3.60007e-20
1.12368e-20
1.53077e-20
3.95977e-21
1.28486e-20
6.5381e-21
1.96614e-20
7.3024e-21
1.77028e-20
1.53221e-20
1.48403e-20
6.98e-21
1.19727e-20
3.00905e-21
7.96483e-21
2.40305e-20
2.39008e-20
1.37047e-20
2.19025e-22
5.53436e-21
1.32958e-20
1.8093e-20
7.52162e-21
8.49213e-21
6.86248e-21
6.71582e-21
2.37562e-20
3.38838e-21
1.13928e-20
2.75864e-20
1.44213e-21
2.8883e-21
1.40131e-20
1.10224e-20
1.48426e-20
2.57768e-21
1.32698e-20
1.54368e-20
6.31625e-21
2.09171e-20
9.47868e-21
1.15642e-20
1.87892e-21
4.88376e-21
9.30185e-21
2.14403e-20
5.37968e-20
6.59559e-21
1.91371e-21
7.5624e-21
1.449e-20
2.52955e-20
6.9706e-21
3.39935e-21
9.17122e-21
6.63042e-21
1.08029e-21
2.2511e-20
1.22759e-20
1.50864e-22
1.6187e-20
5.88094e-21
1.02066e-21
3.53133e-21
6.2085e-21
4.48467e-22
1.40152e-20
4.37665e-21
1.49159e-20
1.43282e-20
8.74227e-21
5.04051e-22
2.4406e-20
4.96101e-21
2.53795e-21
1.19232e-20
3.55787e-21
6.51881e-21
2.69244e-20
1.82117e-21
1.69857e-20
3.026e-22
1.38814e-20
8.78269e-21
9.71674e-21
1.39074e-20
3.81611e-21
5.11904e-21
1.06878e-20
1.45449e-20
2.67586e-20
6.14786e-21
2.44942e-20
4.60867e-20
2.06079e-20
3.78953e-22
2.09068e-20
1.02516e-20
1.12836e-20
5.15973e-21
1.24541e-21
2.93199e-21
2.4453e-21
2.50969e-20
1.43663e-20
7.55446e-21
1.17138e-20
2.50217e-20
1.01554e-21
6.88221e-21
1.88941e-21
1.6737e-21
3.19997e-21
1.14525e-20
2.9368e-20
1.37274e-20
5.11766e-22
7.74888e-22
1.33931e-20
2.38567e-22
1.84947e-20
6.12865e-21
1.30814e-21
3.81573e-21
4.04111e-21
3.49223e-20
1.42139e-20
4.61838e-20
1.55801e-21
2.42403e-20
1.42069e-20
8.12722e-22
2.51664e-20
1.32501e-20
6.15902e-21
3.15029e-20
6.66969e-21
6.85811e-21
7.64252e-21
2.54103e-20
1.21784e-21
1.6536e-20
2.36365e-20
5.44829e-20
9.21526e-21
1.53049e-20
5.05216e-21
2.02642e-20
1.16027e-20
6.6705e-21
9.94826e-21
1.67152e-21
8.15462e-21
1.17413e-22
1.40127e-20
1.02773e-21
1.86422e-21
2.27491e-21
7.13098e-21
6.00958e-21
4.31876e-21
9.34264e-21
6.64721e-21
3.00525e-20
1.79132e-20
1.29787e-20
4.91625e-21
2.64531e-21
2.40406e-20
1.82178e-21
1.7271e-21
6.91578e-21
5.98184e-21
9.62794e-21
1.71155e-22
6.77176e-21
9.05042e-21
1.00493e-20
3.52467e-20
1.32366e-20
2.42973e-20
9.68926e-21
3.31268e-20
8.12749e-21
1.76498e-20
9.86867e-21
6.44177e-21
6.94146e-21
1.1495e-20
1.93494e-20
4.69193e-20
1.4287e-20
1.27878e-20
3.05981e-21
5.61526e-22
8.69501e-21
1.63023e-21
4.73921e-21
1.92406e-21
6.53513e-21
3.57965e-21
6.4949e-21
5.86174e-23
2.13155e-20
5.96753e-20
2.62529e-21
2.06883e-22
1.73541e-20
9.54163e-21
1.42729e-20
1.71536e-21
1.2639e-20
3.31067e-21
5.17938e-21
1.743e-20
3.89783e-21
1.0616e-20
2.06997e-20
1.89522e-20
6.93652e-21
5.78279e-21
1.00996e-20
2.03622e-20
3.84776e-21
1.65034e-20
3.92993e-22
1.18804e-20
1.38287e-20
4.52761e-20
4.22396e-21
4.02803e-21
7.68761e-21
1.48839e-22
3.08188e-22
5.6899e-21
1.50207e-20
1.59791e-21
3.30073e-21
3.04717e-21
1.21533e-20
1.00694e-20
1.17458e-21
2.15749e-20
1.48069e-20
3.52072e-22
1.74206e-20
1.80807e-21
7.66916e-21
4.17155e-22
2.33024e-21
1.59318e-20
6.75864e-21
2.50481e-21
6.71946e-21
4.72209e-21
1.04892e-21
4.43783e-21
1.32583e-21
8.11441e-21
2.93888e-21
2.30371e-20
2.50709e-21
2.73344e-21
1.02192e-20
5.12108e-21
2.6398e-20
1.96072e-20
7.38014e-21
7.67219e-21
4.64893e-21
5.40738e-21
2.90544e-21
2.10642e-20
8.00431e-21
1.34185e-21
2.29817e-20
1.55032e-20
5.36013e-21
6.94432e-21
7.7314e-21
3.41822e-20
1.66861e-20
1.9411e-21
5.32663e-21
6.69515e-21
8.72198e-21
1.66377e-20
5.64128e-22
1.67203e-20
1.09103e-20
2.19278e-20
5.94614e-21
8.13801e-21
1.05392e-20
6.03215e-21
1.28363e-20
2.81783e-23
4.65226e-21
3.46308e-20
6.81256e-20
8.77366e-21
4.06047e-20
2.78147e-20
5.37482e-21
4.00546e-20
4.89161e-21
2.52178e-20
2.23747e-21
7.1198e-21
1.68347e-21
2.3822e-21
5.01614e-21
1.42142e-20
5.51865e-21
1.09902e-20
4.63082e-20
1.8051e-21
3.31074e-21
8.35522e-21
5.34691e-21
2.63143e-21
3.53531e-21
1.31224e-20
7.6742e-21
2.28151e-20
5.24719e-21
9.61946e-22
5.79645e-21
1.72969e-20
7.01788e-21
1.84794e-20
4.36938e-20
2.05655e-20
3.93806e-20
1.66415e-21
1.29578e-20
5.75008e-22
1.18721e-20
3.09535e-22
1.90966e-20
3.33976e-21
2.54687e-21
1.94046e-21
1.90397e-20
2.13541e-20
1.77583e-20
2.02209e-20
8.42786e-21
1.41284e-20
8.72161e-21
4.39362e-22
1.20978e-20
1.61165e-20
5.18487e-21
7.97291e-21
2.32321e-20
2.36262e-21
6.2262e-21
2.04691e-21
1.05613e-20
7.56274e-22
2.40502e-21
8.09948e-21
9.71096e-23
2.67129e-21
7.26658e-21
5.02166e-21
4.47525e-20
4.85422e-21
1.66429e-21
3.37782e-21
3.88312e-21
1.80336e-21
1.23657e-20
8.57691e-21
6.00005e-21
6.29057e-21
9.81443e-21
4.09488e-21
1.3942e-21
8.76069e-21
3.59696e-21
2.5722e-20
2.40902e-20
4.94055e-21
2.38229e-20
2.3496e-22
1.75903e-20
4.17279e-20
4.13397e-21
6.5968e-21
2.43169e-21
4.1018e-22
3.12873e-20
1.18687e-20
3.27559e-21
4.19517e-21
1.29649e-20
4.96951e-21
1.21521e-20
3.55772e-21
9.72415e-21
2.75559e-20
2.19138e-20
7.80672e-21
7.16931e-21
1.07237e-20
1.02774e-20
9.53466e-21
2.36776e-22
6.41346e-21
6.94235e-21
4.76835e-21
2.74381e-21
5.546e-21
1.51763e-23
5.14669e-21
1.24661e-20
1.79445e-20
2.36196e-21
1.3803e-20
8.11823e-21
7.06702e-21
8.42196e-21
4.98207e-20
3.77143e-21
9.41305e-22
2.38002e-22
6.1138e-20
8.41612e-22
4.73674e-22
2.38654e-22
5.2075e-21
1.67707e-20
6.77648e-21
1.01825e-20
1.54745e-20
1.68173e-21
3.80562e-21
5.42324e-20
2.47916e-21
9.10145e-22
5.42954e-21
1.20377e-20
1.50891e-21
1.27746e-20
8.1254e-21
2.43876e-21
8.89496e-21
5.35454e-21
2.28059e-21
1.92893e-20
1.92401e-20
1.71137e-21
9.60014e-21
3.17234e-22
2.3838e-21
1.19614e-20
3.79827e-21
1.77878e-20
9.59579e-21
1.92018e-20
1.43224e-20
1.09175e-20
5.3708e-21
3.44214e-21
5.93068e-21
4.11194e-20
4.20402e-21
6.18126e-20
4.17459e-20
4.17855e-21
2.68746e-21
2.82601e-20
1.32336e-21
1.25443e-20
6.24811e-22
1.18763e-20
1.43458e-20
2.16497e-21
8.56614e-21
4.26138e-20
7.36321e-21
1.56589e-20
3.13377e-20
1.55628e-20
1.31462e-20
7.81422e-21
1.13946e-21
2.65529e-21
1.57866e-20
1.85196e-20
1.22796e-21
4.59088e-21
1.59497e-20
7.74294e-21
8.51688e-21
2.73429e-21
3.57416e-20
2.21484e-21
4.90451e-21
9.00931e-21
9.8527e-21
1.44564e-20
2.73999e-20
1.02109e-20
2.0969e-20
1.77433e-20
4.48293e-21
1.78644e-20
1.12756e-20
1.34011e-20
2.8277e-20
3.57721e-21
1.2653e-20
3.06401e-20
1.57392e-20
5.53782e-21
4.64233e-21
1.96135e-20
3.52605e-21
2.95897e-21
1.68825e-21
2.9779e-21
1.41607e-20
1.14566e-20
1.34785e-20
1.33507e-21
5.76279e-21
6.59644e-21
4.40844e-21
3.37259e-21
1.42152e-21
1.3213e-20
5.05049e-22
3.68773e-20
2.79103e-22
2.61343e-21
2.80943e-20
5.45446e-21
5.05036e-21
1.69836e-20
2.00681e-20
2.55669e-20
5.42323e-21
5.75228e-21
3.88226e-20
1.67123e-20
9.69356e-21
9.62141e-21
1.48017e-21
6.02874e-21
1.88111e-20
2.56931e-21
1.79658e-20
1.62608e-20
7.97913e-21
1.70884e-20
8.03028e-22
6.19517e-21
7.47167e-21
8.32519e-20
5.40035e-21
8.07053e-21
5.32446e-21
2.02589e-20
9.2216e-22
3.2032e-21
2.10565e-20
7.3713e-21
3.14911e-21
3.817e-21
7.56537e-20
5.97286e-21
1.09959e-20
6.84998e-22
3.35197e-20
7.52825e-21
8.76341e-21
1.64302e-21
2.95946e-20
8.77317e-21
3.43782e-21
1.97266e-21
2.83173e-21
2.57129e-21
1.24508e-20
1.28824e-20
6.96805e-20
2.43602e-20
1.71691e-21
4.19577e-20
9.74327e-21
8.24325e-21
1.87819e-20
5.0835e-21
3.90802e-20
1.30652e-20
5.41264e-21
3.18868e-21
3.75286e-22
2.8593e-21
1.13912e-20
1.95543e-20
1.0848e-20
1.05896e-21
3.13374e-20
1.90661e-20
2.01405e-21
3.7546e-21
5.0519e-21
1.937e-20
1.59975e-20
6.48342e-21
9.3229e-22
2.70363e-21
5.49305e-21
4.62596e-20
1.10372e-20
2.26654e-21
1.89976e-21
3.00858e-21
2.36726e-21
3.82894e-21
1.91952e-20
7.42163e-21
8.39056e-21
1.62544e-20
1.18844e-20
1.31957e-21
6.3202e-21
9.66378e-23
2.65543e-20
1.35178e-20
1.72535e-20
3.17741e-21
1.86938e-20
3.67754e-22
2.71659e-21
4.27585e-21
1.19667e-20
6.83779e-21
2.27377e-20
2.82032e-21
3.06646e-20
2.50269e-20
4.69904e-21
3.67968e-20
3.88481e-21
1.26361e-21
5.0621e-21
3.3031e-21
1.4872e-20
3.78423e-21
9.60045e-21
1.02737e-20
6.43451e-20
9.21634e-21
6.32973e-21
5.41225e-22
3.73903e-20
3.88563e-20
9.65216e-21
8.4683e-22
2.89155e-20
1.26019e-20
1.6888e-20
5.78113e-21
5.5282e-21
1.32143e-20
1.06587e-20
7.09229e-21
8.24308e-22
2.4086e-20
1.31158e-20
3.30953e-21
3.57037e-20
2.31028e-21
2.40009e-20
1.75872e-20
1.31439e-21
3.29932e-21
6.76706e-21
7.52532e-21
7.85516e-21
2.47673e-20
2.69007e-20
3.34441e-21
8.18738e-21
4.23534e-21
4.45165e-21
4.19322e-21
7.78827e-22
2.42972e-20
1.99421e-20
2.16023e-21
5.5189e-21
6.71578e-22
2.94157e-22
4.98648e-21
3.02915e-21
1.62469e-20
3.06614e-20
1.03524e-20
3.51721e-20
6.76396e-21
8.75437e-21
1.23106e-20
1.19567e-20
1.76881e-20
1.97279e-20
2.85884e-20
3.43045e-21
1.07647e-20
8.10504e-22
2.55253e-20
3.77843e-20
9.61914e-21
6.98371e-21
9.00526e-21
3.97871e-20
9.50704e-21
1.6914e-20
2.69283e-21
3.88852e-21
3.73658e-23
2.4711e-21
5.6715e-21
8.91368e-21
1.28294e-20
2.6424e-21
1.16398e-20
7.56659e-21
1.40197e-20
1.82411e-20
2.15615e-20
5.92376e-22
3.27101e-21
6.76601e-21
5.63672e-21
1.49657e-20
5.97526e-21
3.95959e-21
5.30375e-22
6.89142e-21
1.24373e-20
2.87076e-21
2.25175e-20
2.13688e-20
1.22083e-20
1.49289e-20
6.54725e-21
1.67944e-20
3.68012e-20
3.67797e-22
2.14893e-20
4.1208e-21
1.55561e-20
5.9572e-21
2.3269e-20
7.81171e-21
1.36985e-20
1.20247e-20
2.51573e-20
3.51893e-20
1.30799e-20
1.53289e-21
3.02191e-21
1.94777e-20
6.13929e-21
1.17182e-20
1.42797e-20
6.96254e-20
2.95312e-20
3.29246e-21
2.60321e-20
9.34153e-21
7.93349e-21
6.45482e-21
4.38046e-21
1.86976e-21
1.42994e-20
2.67947e-21
3.68341e-21
1.5807e-20
9.20906e-22
2.52692e-20
1.5259e-21
4.97472e-22
9.28169e-22
5.88044e-21
8.97852e-21
1.0642e-20
1.00047e-20
4.18034e-21
1.29382e-20
2.4488e-20
3.06652e-20
1.82269e-20
1.50827e-20
1.06973e-21
2.96349e-20
5.69906e-21
2.22342e-21
4.74594e-21
5.35734e-21
8.25569e-22
1.85748e-21
7.80519e-21
2.86681e-21
3.81286e-20
7.59495e-21
8.65223e-21
5.76882e-21
2.20353e-20
6.10842e-21
3.48219e-21
1.06891e-20
1.10465e-20
2.45688e-20
6.86806e-21
2.88356e-21
1.02945e-20
8.47824e-22
6.53988e-22
5.94832e-21
1.35252e-21
1.83899e-20
7.8413e-21
1.31007e-20
9.9629e-21
1.77131e-20
3.46681e-21
7.56189e-21
4.88719e-22
6.68509e-21
3.18122e-20
1.81387e-20
2.44248e-20
2.68758e-20
5.04783e-21
4.62266e-21
1.72634e-20
9.9111e-21
1.74594e-20
8.54993e-21
4.90968e-21
1.14536e-20
7.03512e-22
1.76239e-20
4.24871e-21
2.76054e-20
1.97908e-20
3.99438e-21
1.68676e-20
1.00978e-20
1.70387e-21
4.12519e-21
2.06229e-21
2.70924e-21
5.4888e-21
7.03439e-21
2.00416e-20
9.62394e-21
9.91998e-21
2.7918e-20
1.35145e-20
7.38755e-21
1.93097e-21
1.01695e-20
1.50381e-20
6.60482e-21
1.1065e-20
1.58742e-20
2.65535e-21
4.00653e-20
8.18634e-21
5.38533e-21
7.83012e-21
3.33701e-20
1.68465e-21
1.88173e-20
2.41667e-20
5.91301e-21
2.3914e-21
9.7305e-21
1.35444e-21
1.51478e-20
1.2087e-21
7.25971e-21
2.73959e-20
4.65846e-20
9.02153e-21
4.71546e-21
6.81023e-22
4.54509e-20
1.3878e-20
4.6043e-21
7.63434e-21
4.85154e-21
2.45354e-22
2.99663e-21
5.62735e-21
1.5253e-20
4.87019e-21
2.91478e-21
8.46771e-21
1.50578e-21
3.95266e-21
7.08745e-21
4.08099e-21
5.2186e-21
7.57737e-21
4.04879e-21
6.67317e-21
5.71439e-21
2.61824e-21
5.82319e-20
2.9039e-20
1.82364e-20
1.88047e-20
1.5874e-20
2.37569e-20
9.90392e-21
1.78449e-20
7.38654e-21
1.47474e-20
1.54164e-20
3.24924e-20
5.05605e-22
8.82441e-21
5.81498e-22
1.07648e-20
7.28837e-21
2.29484e-20
7.7377e-20
2.09536e-20
1.50401e-20
1.80936e-21
5.89814e-23
9.04377e-21
1.30368e-20
1.71256e-21
2.33238e-21
1.15513e-20
2.53048e-20
1.05476e-21
2.00585e-21
5.67002e-21
2.25561e-21
8.20306e-21
2.62276e-20
3.96466e-22
3.24265e-20
2.32435e-20
7.068e-21
1.76577e-21
1.95124e-21
2.1658e-21
3.70639e-21
1.45408e-20
2.46393e-21
5.83807e-21
1.24004e-20
3.01962e-21
8.58425e-21
3.04405e-20
8.09396e-21
2.7216e-21
2.67052e-21
6.24678e-21
3.6732e-20
4.27044e-21
1.56782e-21
3.12146e-22
5.24088e-21
3.01155e-20
2.35811e-20
5.21462e-21
2.33873e-21
1.23207e-20
2.76146e-20
9.9603e-21
1.34853e-20
3.8841e-20
1.20525e-20
7.3483e-24
3.08636e-20
8.50025e-21
3.35499e-21
1.76803e-22
7.70594e-21
3.30286e-21
1.31816e-20
4.08416e-21
2.3152e-20
3.27176e-20
2.63849e-21
9.89125e-21
1.72385e-20
2.31348e-20
9.35428e-22
2.66842e-21
5.95324e-21
2.6417e-20
2.42533e-20
2.44688e-21
1.70305e-20
7.08741e-21
9.18024e-21
2.54544e-20
4.44887e-21
4.93835e-20
9.81198e-21
4.7899e-21
9.9223e-21
9.67554e-22
8.04993e-21
1.4396e-21
6.24954e-21
8.91045e-21
2.71743e-20
5.61048e-21
3.9717e-21
5.12038e-21
8.68261e-21
3.97112e-21
6.15412e-20
4.67648e-20
2.8093e-20
1.48438e-20
1.877e-20
7.57011e-21
1.10222e-20
4.89263e-20
1.24893e-20
7.03538e-21
1.24076e-21
2.0061e-20
3.75102e-20
4.01361e-20
2.15487e-20
1.94049e-21
4.11852e-20
1.68406e-21
1.56628e-21
1.48127e-20
2.9394e-21
1.94219e-20
4.6989e-21
7.22375e-22
8.1186e-21
1.92808e-20
3.18263e-20
8.66228e-22
1.45619e-20
1.29809e-20
7.50566e-22
1.23248e-21
1.94673e-20
1.60753e-20
6.12718e-21
4.3551e-21
5.91364e-21
2.12103e-20
4.19051e-21
1.68404e-20
1.13861e-20
5.968e-21
1.90132e-21
8.53512e-21
1.62493e-20
9.62864e-21
5.36966e-21
1.72134e-20
2.90356e-21
9.76682e-24
1.10549e-20
2.23646e-20
2.04913e-22
2.25559e-21
1.45662e-20
2.35612e-20
1.31799e-20
2.85578e-21
5.06831e-21
1.58642e-20
4.39607e-22
1.56602e-20
8.7398e-22
1.05604e-20
2.33342e-21
2.21755e-20
1.79949e-20
1.4003e-20
1.34621e-20
1.18463e-20
1.07683e-20
2.53789e-20
1.08484e-20
3.69994e-21
7.47487e-21
9.31822e-21
1.6822e-21
4.1287e-21
2.74953e-21
4.42873e-22
1.2295e-21
5.63915e-21
9.01079e-21
7.05545e-21
1.25716e-20
4.05005e-20
2.52723e-20
2.61183e-21
2.6883e-21
2.17627e-22
5.65895e-21
7.52611e-23
1.29225e-20
4.53356e-21
4.22906e-22
5.0058e-21
1.82938e-21
2.13156e-20
2.47528e-21
1.27285e-20
5.23974e-20
5.0883e-21
7.60924e-21
4.89602e-21
1.36351e-20
3.52788e-21
6.19513e-21
1.1609e-21
1.01246e-20
1.61986e-21
1.02695e-20
3.58371e-20
1.90211e-20
2.40525e-21
8.09576e-21
6.84823e-21
1.89625e-20
1.0862e-20
2.31653e-21
1.22318e-20
1.58966e-20
1.96878e-20
7.03907e-21
2.88039e-20
1.23232e-20
2.15054e-20
1.02574e-20
4.99679e-21
4.36165e-21
6.73724e-21
3.72657e-21
2.29723e-21
3.98357e-21
5.91463e-21
3.6901e-21
2.14189e-20
2.49164e-21
4.58579e-21
2.71597e-21
3.30285e-20
2.50446e-20
3.03002e-21
1.47666e-20
4.53179e-21
1.39004e-20
4.26189e-21
2.28028e-21
7.17272e-21
5.76265e-21
4.86789e-20
1.3762e-21
2.183e-20
5.23266e-21
2.29915e-20
1.5816e-21
5.61469e-20
1.9557e-21
7.15928e-21
5.43578e-22
2.81374e-21
1.41748e-20
3.71332e-21
2.98629e-20
5.83876e-21
4.01633e-21
1.20365e-20
6.17897e-21
1.21367e-20
8.9501e-21
2.82751e-20
6.09617e-21
1.16862e-20
1.58284e-20
4.12826e-21
1.07465e-21
5.4437e-21
3.52178e-20
7.21572e-21
5.94311e-21
3.13179e-20
5.59328e-21
6.43505e-22
1.08009e-20
1.28219e-20
1.37217e-20
7.02725e-21
8.332e-21
3.8204e-20
1.24893e-20
2.79991e-20
1.4083e-21
4.37571e-21
2.0494e-21
5.26414e-21
1.42972e-21
5.31698e-21
8.57189e-22
2.42372e-21
7.17654e-21
3.65267e-20
2.58745e-21
7.41135e-21
8.65835e-21
5.01025e-21
3.54032e-20
4.08469e-21
5.12197e-21
1.01296e-20
1.56703e-20
2.67668e-20
2.43273e-21
1.21292e-20
1.08512e-20
1.46527e-21
2.48e-20
1.83349e-20
2.50572e-20
1.41073e-20
8.301e-21
1.40021e-20
3.10929e-21
2.3861e-21
5.80088e-21
1.17865e-20
1.76034e-20
1.2108e-20
5.15229e-21
8.59749e-21
4.98671e-21
2.12231e-21
2.15481e-20
1.93422e-20
3.49108e-20
1.5585e-20
8.11193e-21
1.00919e-20
3.53256e-21
3.46634e-22
4.2097e-21
5.9194e-21
8.60419e-21
4.28924e-21
4.21061e-20
1.58086e-20
1.25625e-20
1.55775e-20
6.77577e-21
1.45435e-20
2.01737e-21
5.56002e-22
1.15351e-20
4.90594e-20
4.69786e-21
9.94393e-21
3.54579e-21
3.83461e-21
1.92138e-20
3.87574e-20
1.82704e-20
7.15578e-21
7.66212e-21
2.34108e-20
2.13355e-20
1.16131e-20
7.05213e-21
5.81221e-22
1.618e-20
1.18316e-20
3.65549e-21
1.87959e-20
9.02292e-21
3.59074e-20
6.23897e-22
1.0149e-20
8.08456e-22
1.04502e-20
1.22326e-20
6.53069e-21
5.49369e-22
1.65965e-20
1.89368e-20
9.59768e-21
1.71273e-20
1.727e-21
1.68334e-21
1.93591e-20
1.85685e-20
1.00714e-20
8.29237e-21
2.24759e-20
4.91403e-21
2.69625e-21
2.5767e-20
2.12322e-20
2.70206e-22
1.49666e-20
4.22665e-21
2.99613e-21
6.93818e-21
7.38978e-21
1.77417e-20
6.95692e-20
2.90817e-22
3.16785e-21
3.48601e-22
3.94412e-21
2.29613e-21
6.40667e-21
4.86022e-21
1.00702e-20
9.69576e-21
4.9822e-21
5.25926e-21
1.40066e-20
4.73457e-21
1.93082e-21
1.32216e-20
1.39461e-21
7.52641e-21
3.71754e-20
3.68557e-20
1.09125e-20
1.39166e-20
3.0169e-20
1.74159e-21
3.06436e-20
1.31241e-20
4.26433e-21
1.23877e-20
4.93615e-20
2.81642e-21
9.97436e-22
2.83664e-20
5.6617e-21
2.48325e-21
1.4915e-20
1.05483e-20
1.28963e-22
1.09982e-20
1.2902e-20
1.10374e-21
2.62106e-21
1.76655e-20
3.94471e-21
1.68614e-20
4.62302e-21
3.59687e-21
2.86685e-20
5.89696e-21
1.22051e-20
1.70089e-20
8.74903e-22
1.16366e-20
1.96059e-21
3.81653e-22
4.85698e-21
3.41397e-21
5.43978e-21
1.62917e-20
1.25767e-20
1.35866e-20
3.58928e-21
1.30965e-20
1.7005e-20
6.8478e-21
1.31671e-20
2.17051e-20
4.37992e-21
1.20531e-21
1.05592e-20
3.04087e-20
1.88578e-20
1.76876e-20
1.32558e-20
1.58001e-20
2.7822e-20
6.3868e-20
7.78883e-21
1.17237e-20
1.12216e-20
1.70539e-20
2.53451e-20
1.30038e-20
1.32135e-20
7.96238e-21
3.92832e-21
2.31776e-22
4.85289e-21
1.62508e-20
4.4151e-21
2.77457e-21
4.0616e-21
1.30163e-20
3.04415e-21
4.34375e-20
2.36535e-20
5.6515e-21
5.70766e-21
2.70581e-20
5.32859e-21
1.40181e-21
1.88712e-20
3.16569e-21
6.80818e-21
1.46373e-20
1.94005e-20
1.28232e-21
5.05789e-22
3.42125e-21
5.07911e-20
3.45005e-21
4.52223e-20
2.44335e-20
2.35153e-20
1.15832e-20
2.15904e-21
3.3033e-20
6.6277e-21
3.94387e-20
7.7564e-21
5.75368e-21
3.68886e-21
6.52233e-21
4.18218e-21
8.95916e-21
4.16156e-21
1.06484e-20
5.71919e-21
1.1507e-20
5.7564e-22
9.33794e-21
7.77293e-21
4.54343e-20
9.51809e-21
7.81253e-21
4.17664e-21
1.39169e-20
5.10767e-21
6.84178e-21
2.86822e-20
1.90006e-20
5.32429e-21
2.39649e-22
2.20386e-20
6.97747e-21
3.53438e-20
4.34672e-20
9.4841e-21
2.70954e-21
1.8842e-20
5.71099e-20
1.41672e-20
3.34239e-22
1.67163e-20
1.40511e-21
1.68993e-21
4.68719e-21
7.53937e-21
9.04241e-21
1.86568e-20
2.39132e-20
1.71402e-20
4.37592e-20
2.13272e-21
5.04333e-21
3.78398e-21
9.26689e-21
2.48243e-20
4.49871e-21
4.92686e-21
7.04998e-21
7.51966e-20
2.00072e-20
5.40946e-21
5.96808e-22
1.65776e-20
2.59153e-21
2.00465e-20
2.98027e-20
6.42116e-21
2.10846e-21
2.56564e-20
2.55101e-20
5.45945e-21
8.3528e-21
2.04876e-20
1.92444e-21
2.6119e-21
2.51295e-21
1.94126e-20
5.56654e-21
5.24175e-21
4.21762e-20
9.20282e-21
1.56414e-20
1.06981e-21
2.11737e-20
1.03093e-20
6.08348e-21
1.98918e-20
2.27875e-21
3.79804e-20
1.45163e-21
1.69725e-20
1.71851e-21
1.47753e-21
3.35608e-21
2.44007e-21
8.52984e-21
2.2854e-21
1.7366e-20
1.41523e-21
4.6712e-21
2.17094e-20
3.10122e-20
3.56275e-21
4.94954e-21
4.87751e-23
1.33659e-21
7.80043e-21
1.97282e-20
2.05387e-20
1.86296e-22
3.64125e-20
6.2736e-21
2.89325e-20
9.66906e-21
6.72645e-22
9.30232e-21
7.41095e-24
2.67738e-21
4.87209e-21
9.3483e-22
2.01913e-20
9.72074e-21
2.30224e-21
2.0287e-22
5.80444e-21
1.00587e-20
4.59518e-21
2.90174e-20
3.42612e-20
7.8374e-21
3.28777e-20
2.64853e-20
4.39328e-22
2.2772e-21
3.28097e-21
1.34897e-21
2.9364e-21
4.99746e-21
5.31696e-21
2.72795e-21
1.45656e-22
1.48397e-20
5.91396e-21
1.297e-20
1.95264e-21
1.06208e-21
9.43871e-21
1.58311e-20
1.23289e-20
4.30988e-20
3.85303e-20
1.31981e-20
4.61713e-20
4.70297e-21
1.08209e-20
8.94823e-22
1.09507e-20
5.24381e-21
1.95053e-20
2.47498e-20
1.49948e-21
8.50715e-21
1.92153e-20
8.14657e-21
8.56628e-21
1.21655e-20
7.36923e-21
6.73866e-22
3.81838e-21
4.14656e-20
6.86689e-21
3.36059e-22
1.79396e-21
5.32685e-21
2.22996e-20
1.55038e-20
4.8282e-22
1.86003e-20
5.76452e-23
2.66374e-22
7.12152e-21
1.66437e-20
9.36909e-22
4.03658e-21
2.22265e-20
7.15812e-21
2.67065e-20
7.28966e-21
3.65819e-21
3.1235e-21
7.30943e-21
9.35686e-21
2.62568e-21
2.46033e-20
2.21933e-20
3.19368e-20
1.45495e-20
2.15661e-20
4.43413e-21
6.54671e-21
1.497e-21
4.42503e-21
1.33603e-20
2.06304e-21
1.64749e-20
9.4135e-21
1.51799e-20
4.55016e-21
1.13819e-20
9.71813e-21
2.63706e-20
1.53216e-20
1.95889e-21
1.46767e-20
3.78928e-20
4.29932e-21
6.85789e-21
1.59443e-21
1.84587e-20
1.05347e-20
3.01879e-22
6.51607e-21
1.9372e-20
5.17872e-21
1.42248e-21
1.13979e-20
1.73775e-22
1.65641e-20
2.2469e-20
1.59375e-20
1.74398e-20
1.69251e-21
2.28995e-21
5.58867e-21
1.56637e-21
2.79735e-20
8.91379e-21
7.61877e-21
1.12159e-20
2.78109e-21
1.73515e-21
3.51062e-20
2.28713e-22
8.49086e-20
1.32298e-23
1.13747e-20
3.38066e-20
7.08947e-22
1.99873e-20
6.53932e-21
1.02763e-21
6.58421e-21
1.18725e-20
5.42206e-21
1.1934e-20
1.41702e-20
5.89473e-21
4.71419e-20
7.24771e-23
1.18074e-20
8.01463e-22
2.97756e-21
3.48144e-21
1.5108e-20
9.21283e-21
1.11529e-20
5.08255e-21
1.86256e-21
9.02964e-21
9.17958e-21
5.20508e-21
2.02584e-20
1.94615e-20
4.45674e-21
6.83922e-21
8.61574e-22
9.91469e-21
6.41269e-21
3.96631e-21
3.37905e-21
3.54588e-21
1.55241e-21
4.57984e-21
9.42931e-21
2.59952e-20
7.85079e-21
1.3597e-20
7.00895e-21
1.77132e-22
2.52603e-20
1.61677e-21
1.09873e-20
7.5299e-21
5.8289e-21
2.5091e-22
9.75142e-21
1.13347e-21
1.75902e-20
2.57625e-20
1.08503e-21
6.40614e-20
4.26663e-21
1.13701e-21
1.4913e-20
2.07106e-20
7.54e-21
5.87256e-21
2.05607e-20
1.53435e-20
9.06593e-21
5.90786e-21
4.85264e-21
1.25672e-21
4.21052e-21
3.05399e-20
1.40246e-21
5.01337e-21
5.01308e-22
5.94961e-21
3.03816e-21
8.21366e-21
1.69189e-21
1.70272e-20
1.22449e-20
9.97172e-21
3.83724e-21
4.16765e-20
3.35478e-21
1.17257e-20
5.15941e-21
6.63606e-21
8.36178e-21
4.2613e-20
3.03352e-21
6.52416e-21
3.15209e-21
1.84682e-20
7.71959e-21
4.86548e-21
3.17533e-20
1.34244e-20
3.74173e-21
8.1119e-21
2.88973e-20
1.45917e-21
3.82816e-21
3.46637e-20
5.58207e-21
3.12067e-21
2.04943e-20
1.67825e-20
1.97609e-21
1.95743e-21
1.65608e-20
2.19136e-20
1.15989e-20
6.64774e-21
1.34264e-20
1.39174e-21
7.44504e-21
3.45617e-20
7.45376e-22
4.63964e-21
7.12262e-21
2.89692e-21
3.04715e-21
2.28875e-20
6.74257e-21
1.82464e-20
1.33058e-21
7.08688e-21
1.72286e-20
5.93089e-21
6.91616e-22
2.0456e-20
5.75948e-21
1.83778e-20
5.38908e-21
2.02882e-20
1.67509e-20
1.09068e-22
4.61133e-21
9.15006e-21
3.07711e-21
9.28247e-21
1.42008e-20
7.93357e-21
3.84993e-21
4.81922e-21
1.93551e-20
1.47467e-20
6.85547e-21
1.23824e-20
6.41188e-21
2.34068e-20
1.5231e-21
6.73234e-21
4.95327e-20
2.0528e-20
3.57605e-20
1.71442e-20
2.01143e-20
1.25815e-21
1.74925e-20
1.80691e-21
1.54089e-20
1.2575e-20
2.51092e-21
1.3061e-20
1.1468e-20
1.38545e-20
8.95583e-21
5.92224e-21
3.76365e-21
2.16193e-20
1.75996e-21
7.5167e-21
8.15e-21
6.78926e-21
5.28315e-21
8.5684e-21
7.02351e-21
4.63011e-20
4.66811e-21
5.37943e-21
3.74344e-22