/*--------------------------------*- C++ -*----------------------------------*\
  =========                 |
  \\      /  F ield         | OpenFOAM: The Open Source CFD Toolbox
   \\    /   O peration     | Website:  https://openfoam.org
    \\  /    A nd           | Version:  7
     \\/     M anipulation  |
\*---------------------------------------------------------------------------*/
FoamFile
{
    version     2.0;
    format      ascii;
    class       Cloud<passiveParticle>;
    location    "0/lagrangian/dsmc";
    object      positions;
}
// * * * * * * * * * * * * * * * * * * * * * * * * * * * * * * * * * * * * * //

31774
(
(0.495043 0.0905052 0.203785 0.210667) 0 0 1
(0.293376 0.217952 0.389029 0.0996424) 0 0 1
(0.166124 0.469813 0.191925 0.172138) 0 0 1
(0.379355 0.0222885 0.465564 0.132793) 0 0 1
(0.431592 0.352189 0.0978328 0.118386) 0 0 1
(0.0295846 0.0516052 0.61454 0.304271) 0 0 1
(0.089999 0.211578 0.247299 0.451124) 0 0 1
(0.450023 0.343193 0.191284 0.0154995) 0 0 1
(0.635478 0.143524 0.186748 0.03425) 0 0 1
(0.217135 0.0141549 0.463891 0.30482) 0 0 1
(0.0276178 0.787293 0.0580275 0.127062) 0 0 1
(0.12689 0.507144 0.267638 0.0983285) 0 0 1
(0.131908 0.473019 0.388982 0.00609213) 0 0 1
(0.0123209 0.173972 0.090928 0.722779) 0 0 1
(0.0542153 0.000687524 0.543881 0.401216) 0 0 1
(0.765441 0.0259171 0.0827453 0.125896) 0 0 1
(0.234038 0.106072 0.447475 0.212415) 0 0 1
(0.0530864 0.0983564 0.0936716 0.754886) 0 0 1
(0.0414179 0.648506 0.306769 0.00330719) 0 0 1
(0.11237 0.0563241 0.675189 0.156117) 0 0 1
(0.445814 0.426242 0.125213 0.00273068) 0 0 1
(0.119349 0.222943 0.151691 0.506017) 0 0 2
(0.131071 0.138055 0.457496 0.273378) 0 0 2
(0.726374 0.146627 0.101553 0.0254457) 0 0 2
(0.339755 0.175009 0.449704 0.0355315) 0 0 2
(0.110255 0.580444 0.000508976 0.308792) 0 0 2
(0.305839 0.355001 0.328966 0.0101947) 0 0 2
(0.195773 0.0890558 0.0139506 0.70122) 0 0 2
(0.415492 0.324744 0.213474 0.04629) 0 0 2
(0.165055 0.718071 0.113286 0.00358847) 0 0 2
(0.702989 0.116787 0.0508918 0.129332) 0 0 2
(0.246278 0.138887 0.0404305 0.574405) 0 0 2
(0.0187833 0.314605 0.535152 0.13146) 0 0 2
(0.0191512 0.398988 0.231283 0.350578) 0 0 2
(0.468486 0.00706711 0.248454 0.275994) 0 0 2
(0.17982 0.051972 0.221874 0.546334) 0 0 2
(0.0946332 0.615379 0.147048 0.14294) 0 0 2
(0.244439 0.251623 0.131813 0.372124) 0 0 2
(0.0286641 0.098722 0.52046 0.352153) 0 0 2
(0.411461 0.134949 0.0370718 0.416518) 0 0 2
(0.113054 0.480934 0.228605 0.177407) 0 0 2
(0.264819 0.272418 0.360732 0.102031) 0 0 2
(0.197087 0.0899982 0.226726 0.486189) 0 124 1
(0.25204 0.490845 0.145015 0.112101) 0 124 1
(0.256485 0.48684 0.0744942 0.182181) 0 124 1
(0.239262 0.48051 0.0513224 0.228906) 0 124 1
(0.0258651 0.0725195 0.0406706 0.860945) 0 124 1
(0.0307499 0.0518257 0.584904 0.33252) 0 124 1
(0.0741894 0.213301 0.124075 0.588435) 0 124 1
(0.399567 0.565552 0.00986925 0.0250117) 0 124 1
(0.209772 0.366763 0.0055711 0.417893) 0 124 1
(0.267691 0.00805791 0.55968 0.164572) 0 124 1
(0.175124 0.121522 0.0868854 0.616468) 0 124 1
(0.367558 0.44584 0.13147 0.0551308) 0 124 1
(0.0521851 0.21512 0.2962 0.436494) 0 124 1
(0.411258 0.188449 0.16392 0.236373) 0 124 1
(0.0307263 0.201103 0.0671774 0.700993) 0 124 1
(0.0747754 0.720221 0.172709 0.0322941) 0 124 1
(0.316336 0.17745 0.353942 0.152272) 0 124 1
(0.179738 0.16757 0.592118 0.0605741) 0 124 1
(0.378568 0.135169 0.241679 0.244585) 0 124 1
(0.736833 0.09387 0.106484 0.0628128) 0 124 1
(0.175424 0.505771 0.174127 0.144678) 0 124 1
(0.729891 0.124299 0.0412524 0.104558) 0 124 2
(0.324218 0.0368566 0.0600823 0.578843) 0 124 2
(0.240591 0.260727 0.284533 0.21415) 0 124 2
(0.396982 0.407546 0.0830183 0.112454) 0 124 2
(0.0206487 0.188767 0.352088 0.438496) 0 124 2
(0.116748 0.193086 0.237559 0.452606) 0 124 2
(0.193181 0.253667 0.143987 0.409165) 0 124 2
(0.123487 0.477742 0.240059 0.158712) 0 124 2
(0.208132 0.333933 0.0855596 0.372376) 0 124 2
(0.112363 0.048518 0.447799 0.39132) 0 124 2
(0.202174 0.694505 0.0865959 0.0167253) 0 124 2
(0.104684 0.315329 0.483615 0.0963724) 0 124 2
(0.0400112 0.298296 0.40529 0.256403) 0 124 2
(0.0484699 0.82857 0.0867685 0.0361915) 0 124 2
(0.605093 0.152542 0.194078 0.0482871) 0 124 2
(0.081608 0.522942 0.234492 0.160957) 0 124 2
(0.0860716 0.183327 0.031664 0.698937) 0 124 2
(0.402049 0.225674 0.0691183 0.303159) 0 124 2
(0.226464 0.0597081 0.219443 0.494385) 0 124 2
(0.0851321 0.127098 0.523379 0.264391) 0 124 2
(0.441646 0.227147 0.119542 0.211666) 0 124 2
(0.487412 0.042061 0.1379 0.332627) 0 125 1
(0.274109 0.438241 0.103334 0.184316) 0 125 1
(0.564082 0.0467177 0.25426 0.13494) 0 125 1
(0.433904 0.28034 0.280365 0.00539092) 0 125 1
(0.158763 0.147825 0.646891 0.046521) 0 125 1
(0.15946 0.615168 0.0374041 0.187968) 0 125 1
(0.105886 0.0217983 0.459258 0.413058) 0 125 1
(0.501431 0.00140522 0.177689 0.319475) 0 125 1
(0.233004 0.0430623 0.510188 0.213746) 0 125 1
(0.329553 0.323964 0.0538697 0.292613) 0 125 1
(0.183235 0.174361 0.1708 0.471604) 0 125 1
(0.29668 0.17076 0.218213 0.314346) 0 125 1
(0.0417867 0.445746 0.245056 0.267411) 0 125 1
(0.192423 0.317995 0.0393199 0.450261) 0 125 1
(0.0374533 0.11892 0.515724 0.327903) 0 125 1
(0.121788 0.262309 0.00757711 0.608326) 0 125 1
(0.294694 0.647471 0.0244644 0.0333707) 0 125 1
(0.27534 0.174817 0.531201 0.0186425) 0 125 1
(0.185271 0.137572 0.172537 0.50462) 0 125 1
(0.82044 0.0114713 0.0974936 0.0705954) 0 125 1
(0.444739 0.0181509 0.0165884 0.520521) 0 125 1
(0.276249 0.253969 0.298703 0.171078) 0 125 2
(0.0854172 0.0326758 0.201092 0.680815) 0 125 2
(0.692164 0.0185579 0.238971 0.0503075) 0 125 2
(0.612235 0.0128313 0.14466 0.230274) 0 125 2
(0.316171 0.0780891 0.385016 0.220725) 0 125 2
(0.46804 0.354561 0.159416 0.0179829) 0 125 2
(0.0604013 0.596038 0.314712 0.0288488) 0 125 2
(0.343317 0.0101308 0.191957 0.454594) 0 125 2
(0.225252 0.520033 0.131844 0.12287) 0 125 2
(0.0996441 0.0184405 0.712349 0.169566) 0 125 2
(0.484591 0.0913284 0.247238 0.176843) 0 125 2
(0.0979879 0.616344 0.280393 0.00527546) 0 125 2
(0.15076 0.483142 0.280948 0.0851508) 0 125 2
(0.529809 0.196977 0.0598191 0.213394) 0 125 2
(0.151735 0.419322 0.304596 0.124347) 0 125 2
(0.085547 0.453002 0.357801 0.10365) 0 125 2
(0.262006 0.0453329 0.498318 0.194344) 0 125 2
(0.0825123 0.575268 0.124243 0.217976) 0 125 2
(0.368694 0.157583 0.0918204 0.381903) 0 125 2
(0.544246 0.103304 0.0820263 0.270424) 0 125 2
(0.0517733 0.192469 0.628563 0.127195) 0 125 2
(0.0833896 0.0529645 0.395948 0.467698) 0 125 2
(0.276008 0.0865261 0.390822 0.246643) 0 250 1
(0.0690096 0.391144 0.386434 0.153412) 0 250 1
(0.106674 0.555749 0.275306 0.0622713) 0 250 1
(0.164354 0.0439857 0.391281 0.40038) 0 250 1
(0.0431713 0.601952 0.325461 0.0294165) 0 250 1
(0.414965 0.224991 0.0558134 0.30423) 0 250 1
(0.108017 0.629265 0.186506 0.0762119) 0 250 1
(0.225854 0.550606 0.172767 0.0507724) 0 250 1
(0.58315 0.11247 0.232564 0.0718151) 0 250 1
(0.00659197 0.529828 0.0949395 0.36864) 0 250 1
(0.456129 0.141874 0.273052 0.128945) 0 250 1
(0.547842 0.184848 0.124555 0.142755) 0 250 1
(0.385503 0.233093 0.353601 0.0278023) 0 250 1
(0.185944 0.314589 0.223237 0.27623) 0 250 1
(0.280476 0.474224 0.219814 0.0254852) 0 250 1
(0.0107375 0.257039 0.346182 0.386041) 0 250 1
(0.0021056 0.237039 0.0909386 0.669917) 0 250 1
(0.283557 0.0618376 0.0387543 0.615851) 0 250 1
(0.277422 0.0856467 0.62119 0.0157404) 0 250 1
(0.551241 0.0296798 0.101006 0.318074) 0 250 1
(0.565718 0.0299109 0.217878 0.186493) 0 250 1
(0.101796 0.0501181 0.0692769 0.778809) 0 250 2
(0.291869 0.0906055 0.534304 0.0832214) 0 250 2
(0.22689 0.377611 0.304125 0.0913736) 0 250 2
(0.0748627 0.396704 0.258909 0.269525) 0 250 2
(0.0411086 0.126611 0.192771 0.639509) 0 250 2
(0.129112 0.0421685 0.0107725 0.817947) 0 250 2
(0.0848732 0.410023 0.148096 0.357007) 0 250 2
(0.0849845 0.0866115 0.122795 0.705609) 0 250 2
(0.0541195 0.614797 0.0929898 0.238094) 0 250 2
(0.0269424 0.428461 0.280572 0.264025) 0 250 2
(0.116207 0.30487 0.359638 0.219285) 0 250 2
(0.0591569 0.371545 0.392905 0.176393) 0 250 2
(0.7824 0.0434795 0.113949 0.0601709) 0 250 2
(0.566237 0.253753 0.0992719 0.0807379) 0 250 2
(0.271521 0.596597 0.0291603 0.102722) 0 250 2
(0.151627 0.487174 0.269077 0.0921227) 0 250 2
(0.0379 0.465313 0.322573 0.174214) 0 250 2
(0.0171067 0.000353691 0.830967 0.151572) 0 250 2
(0.0156903 0.367591 0.0968883 0.519831) 0 250 2
(0.113238 0.197623 0.243288 0.445851) 0 250 2
(0.460603 0.284924 0.100646 0.153827) 0 250 2
(0.561983 0.278386 0.0852713 0.0743602) 0 250 2
(0.0625083 0.638394 0.14366 0.155438) 0 375 1
(0.455038 0.145586 0.24221 0.157167) 0 375 1
(0.0488976 0.291316 0.164491 0.495296) 0 375 1
(0.180874 0.303407 0.00580465 0.509914) 0 375 1
(0.00288257 0.563021 0.170745 0.263352) 0 375 1
(0.537745 0.157875 0.21668 0.0876998) 0 375 1
(0.400828 0.108655 0.12256 0.367957) 0 375 1
(0.681235 0.10088 0.0390783 0.178807) 0 375 1
(0.473459 0.202514 0.10616 0.217868) 0 375 1
(0.619363 0.158405 0.176085 0.0461468) 0 375 1
(0.024396 0.539504 0.210534 0.225566) 0 375 1
(0.645423 0.233112 0.115341 0.00612436) 0 375 1
(0.598292 0.0315364 0.225742 0.144429) 0 375 1
(0.387587 0.53939 0.0640373 0.00898586) 0 375 1
(0.661521 0.187582 0.0324954 0.118401) 0 375 1
(0.0792875 0.493526 0.189576 0.23761) 0 375 1
(0.444876 0.0651586 0.0338039 0.456161) 0 375 1
(0.0698888 0.258092 0.0602333 0.611786) 0 375 1
(0.803598 0.0234238 0.151335 0.0216432) 0 375 1
(0.0299977 0.458275 0.324611 0.187116) 0 375 1
(0.0194647 0.161825 0.243086 0.575624) 0 375 1
(0.100054 0.0305587 0.814331 0.0550565) 0 375 2
(0.396791 0.1917 0.219092 0.192417) 0 375 2
(0.248625 0.105991 0.198561 0.446823) 0 375 2
(0.313179 0.106624 0.545348 0.0348496) 0 375 2
(0.124519 0.363781 0.448663 0.0630364) 0 375 2
(0.0446477 0.801459 0.00440066 0.149492) 0 375 2
(0.0606365 0.233183 0.657292 0.0488878) 0 375 2
(0.104314 0.385556 0.398805 0.111325) 0 375 2
(0.456462 0.0918217 0.331881 0.119835) 0 375 2
(0.14994 0.133606 0.36964 0.346814) 0 375 2
(0.283692 0.516997 0.174381 0.0249307) 0 375 2
(0.413659 0.0335766 0.19041 0.362354) 0 375 2
(0.0244711 0.374806 0.587461 0.0132623) 0 375 2
(0.0455202 0.614719 0.20081 0.138951) 0 375 2
(0.117146 0.420833 0.400133 0.0618875) 0 375 2
(0.0324923 0.535766 0.381417 0.0503248) 0 375 2
(0.241426 0.219568 0.122349 0.416657) 0 375 2
(0.470034 0.146946 0.345929 0.0370906) 0 375 2
(0.642416 0.01128 0.224796 0.121508) 0 375 2
(0.00547504 0.239587 0.0781093 0.676828) 0 375 2
(0.334946 0.0298672 0.481352 0.153834) 0 375 2
(0.0234275 0.032012 0.515512 0.429049) 0 500 1
(0.27044 0.223179 0.0209476 0.485433) 0 500 1
(0.192833 0.0770001 0.377157 0.35301) 0 500 1
(0.261692 0.186709 0.549176 0.0024232) 0 500 1
(0.151119 0.0200606 0.0344832 0.794337) 0 500 1
(0.117615 0.316899 0.0987624 0.466723) 0 500 1
(0.0784217 0.508872 0.408736 0.00397053) 0 500 1
(0.319282 0.0607847 0.0760705 0.543863) 0 500 1
(0.119213 0.043044 0.281671 0.556073) 0 500 1
(0.0295848 0.266914 0.418139 0.285362) 0 500 1
(0.282754 0.147069 0.298238 0.271938) 0 500 1
(0.0906085 0.363482 0.0273667 0.518542) 0 500 1
(0.265876 0.364485 0.0925107 0.277128) 0 500 1
(0.00875532 0.104601 0.855304 0.0313391) 0 500 1
(0.163546 0.170778 0.0430433 0.622633) 0 500 1
(0.101865 0.536185 0.241772 0.120178) 0 500 1
(0.171507 0.0599697 0.619822 0.148702) 0 500 1
(0.498306 0.196406 0.184794 0.120493) 0 500 1
(0.0275934 0.592537 0.337732 0.0421378) 0 500 1
(0.206385 0.103487 0.386695 0.303433) 0 500 1
(0.27259 0.111633 0.499886 0.115891) 0 500 1
(0.369612 0.187514 0.0662624 0.376611) 0 500 2
(0.149892 0.169324 0.418168 0.262616) 0 500 2
(0.236393 0.099502 0.177392 0.486714) 0 500 2
(0.185988 0.085288 0.635699 0.0930245) 0 500 2
(0.35186 0.397275 0.0547236 0.196141) 0 500 2
(0.078922 0.24147 0.106438 0.57317) 0 500 2
(0.213186 0.09013 0.609997 0.0866868) 0 500 2
(0.00732288 0.0217345 0.466637 0.504305) 0 500 2
(0.354251 0.248148 0.389653 0.00794767) 0 500 2
(0.29855 0.387141 0.0308628 0.283447) 0 500 2
(0.37683 0.310952 0.246421 0.065797) 0 500 2
(0.524853 0.206134 0.240412 0.0286001) 0 500 2
(0.394385 0.424503 0.113217 0.067895) 0 500 2
(0.445318 0.171382 0.216349 0.166951) 0 500 2
(0.726923 0.214371 0.0528744 0.00583173) 0 500 2
(0.101918 0.0729077 0.674642 0.150532) 0 500 2
(0.0872583 0.052896 0.709871 0.149974) 0 500 2
(0.0975047 0.263933 0.0838098 0.554752) 0 500 2
(0.281341 0.336938 0.282914 0.0988072) 0 500 2
(0.226627 0.00471658 0.439574 0.329082) 0 500 2
(0.553004 0.0936482 0.148892 0.204456) 0 500 2
(0.0220022 0.634038 0.00448137 0.339479) 1 1 1
(0.157669 0.115055 0.513594 0.213682) 1 1 1
(0.0345119 0.102996 0.332343 0.530148) 1 1 1
(0.244421 0.545753 0.109233 0.100594) 1 1 1
(0.0371439 0.0772306 0.410483 0.475143) 1 1 1
(0.55008 0.180023 0.131128 0.13877) 1 1 1
(0.368754 0.383936 0.225433 0.0218765) 1 1 1
(0.390133 0.325327 0.0407178 0.243821) 1 1 1
(0.0896765 0.588381 0.0296329 0.292309) 1 1 1
(0.596006 0.114075 0.138082 0.151838) 1 1 1
(0.240045 0.0178244 0.509624 0.232507) 1 1 1
(0.274513 0.0565477 0.201555 0.467385) 1 1 1
(0.436644 0.0775842 0.236074 0.249697) 1 1 1
(0.453802 0.0196506 0.176488 0.35006) 1 1 1
(0.037861 0.0495669 0.664767 0.247805) 1 1 1
(0.157308 0.184121 0.501392 0.15718) 1 1 1
(0.0618844 0.0694228 0.37924 0.489453) 1 1 1
(0.309865 0.426551 0.0399432 0.223641) 1 1 1
(0.366982 0.373894 0.13096 0.128165) 1 1 1
(0.0948042 0.381186 0.280294 0.243716) 1 1 1
(0.36389 0.0410251 0.46417 0.130915) 1 1 1
(0.196689 0.269531 0.30924 0.224539) 1 1 1
(0.185666 0.121523 0.107628 0.585184) 1 1 2
(0.114159 0.362485 0.0280763 0.49528) 1 1 2
(0.474898 0.0822864 0.0913738 0.351442) 1 1 2
(0.0459275 0.0862522 0.590871 0.276949) 1 1 2
(0.610041 0.338348 0.021379 0.0302326) 1 1 2
(0.239577 0.00265476 0.603479 0.154289) 1 1 2
(0.0839283 0.0110299 0.424059 0.480983) 1 1 2
(0.0196305 0.513209 0.26964 0.197521) 1 1 2
(0.45719 0.18862 0.242048 0.112142) 1 1 2
(0.138718 0.0113881 0.67646 0.173434) 1 1 2
(0.24122 0.0883727 0.585037 0.0853698) 1 1 2
(0.430876 0.0405278 0.509829 0.0187672) 1 1 2
(0.498247 0.197714 0.0673577 0.236681) 1 1 2
(0.34583 0.0561239 0.468245 0.129801) 1 1 2
(0.21001 0.665851 0.0357371 0.0884013) 1 1 2
(0.535369 0.275827 0.0796915 0.109112) 1 1 2
(0.164501 0.484217 0.0159522 0.335329) 1 1 2
(0.0437449 0.375637 0.236245 0.344373) 1 1 2
(0.605335 0.261116 0.0857414 0.0478075) 1 1 2
(0.108321 0.418446 0.281964 0.191269) 1 1 2
(0.407017 0.348981 0.0138132 0.230189) 1 1 2
(0.0436479 0.306203 0.230926 0.419223) 1 1 2
(0.817692 0.070111 0.0775122 0.0346848) 1 126 1
(0.112942 0.489014 0.0599604 0.338084) 1 126 1
(0.090324 0.489983 0.0112783 0.408415) 1 126 1
(0.193647 0.448158 0.216894 0.141301) 1 126 1
(0.0302587 0.211127 0.447247 0.311367) 1 126 1
(0.404329 0.0830054 0.0132523 0.499414) 1 126 1
(0.191795 0.175607 0.485618 0.14698) 1 126 1
(0.0671014 0.0584455 0.487547 0.386906) 1 126 1
(0.00555626 0.127022 0.804986 0.0624357) 1 126 1
(0.483236 0.00243786 0.242139 0.272188) 1 126 1
(0.396592 0.253189 0.307214 0.0430045) 1 126 1
(0.164081 0.448625 0.263584 0.12371) 1 126 1
(0.489139 0.291763 0.146284 0.0728139) 1 126 1
(0.256684 0.349746 0.312679 0.0808907) 1 126 1
(0.0562017 0.109053 0.132403 0.702342) 1 126 1
(0.0446329 0.324864 0.221319 0.409184) 1 126 1
(0.680013 0.0236837 0.276591 0.0197124) 1 126 1
(0.23744 0.141494 0.0626155 0.55845) 1 126 1
(0.72369 0.0809189 0.0874987 0.107893) 1 126 1
(0.270591 0.0606083 0.294731 0.37407) 1 126 1
(0.159858 0.181027 0.452287 0.206828) 1 126 1
(0.0290033 0.605795 0.0789635 0.286238) 1 126 2
(0.00628478 0.630997 0.328076 0.0346422) 1 126 2
(0.457422 0.123984 0.068849 0.349745) 1 126 2
(0.0476663 0.58149 0.317631 0.0532129) 1 126 2
(0.0736549 0.579118 0.0399016 0.307325) 1 126 2
(0.312639 0.364292 0.0269039 0.296165) 1 126 2
(0.164551 0.498962 0.0816861 0.254801) 1 126 2
(0.531306 0.205395 0.137506 0.125793) 1 126 2
(0.00580032 0.0609808 0.224632 0.708587) 1 126 2
(0.303641 0.204294 0.446793 0.0452724) 1 126 2
(0.210431 0.0107629 0.0868965 0.69191) 1 126 2
(0.0874726 0.08236 0.5731 0.257068) 1 126 2
(0.493938 0.209754 0.169818 0.126489) 1 126 2
(0.0772601 0.490512 0.261624 0.170603) 1 126 2
(0.259608 0.125078 0.544319 0.0709949) 1 126 2
(0.142322 0.198007 0.383355 0.276317) 1 126 2
(0.281618 0.116008 0.0371645 0.56521) 1 126 2
(0.315103 0.393754 0.205502 0.0856417) 1 126 2
(0.274026 0.062544 0.551173 0.112257) 1 126 2
(0.463193 0.0759013 0.123604 0.337302) 1 126 2
(0.246808 0.335015 0.305659 0.112518) 1 126 2
(0.0339101 0.0226738 0.867314 0.0761022) 1 251 1
(0.00158171 0.703807 0.221455 0.0731559) 1 251 1
(0.306505 0.451831 0.00899061 0.232673) 1 251 1
(0.319518 0.126097 0.12807 0.426316) 1 251 1
(0.0475942 0.286789 0.454128 0.211489) 1 251 1
(0.291845 0.209193 0.364175 0.134787) 1 251 1
(0.295755 0.56913 0.0613921 0.0737231) 1 251 1
(0.374805 0.248148 0.0145442 0.362502) 1 251 1
(0.195907 0.0605781 0.681258 0.0622569) 1 251 1
(0.480602 0.0512944 0.138054 0.330049) 1 251 1
(0.636917 0.0172142 0.0522549 0.293614) 1 251 1
(0.274038 0.269493 0.372723 0.0837456) 1 251 1
(0.0615307 0.37075 0.106511 0.461208) 1 251 1
(0.0377318 0.359006 0.18551 0.417753) 1 251 1
(0.0554023 0.246489 0.0405411 0.657568) 1 251 1
(0.409225 0.0499677 0.406999 0.133809) 1 251 1
(0.164944 0.315643 0.303932 0.215482) 1 251 1
(0.0422997 0.0226292 0.577349 0.357722) 1 251 1
(0.401643 0.12816 0.172886 0.297312) 1 251 1
(0.233043 0.0385747 0.318493 0.40989) 1 251 1
(0.119932 0.505924 0.352233 0.0219109) 1 251 1
(0.197154 0.687914 0.0755911 0.0393411) 1 251 2
(0.19341 0.141428 0.141305 0.523857) 1 251 2
(0.220788 0.170943 0.0305891 0.57768) 1 251 2
(0.348507 0.467699 0.105409 0.0783846) 1 251 2
(0.139836 0.343479 0.114281 0.402404) 1 251 2
(0.336502 0.182964 0.0295836 0.45095) 1 251 2
(0.0154242 0.368518 0.358715 0.257343) 1 251 2
(0.158361 0.00423781 0.201203 0.636198) 1 251 2
(0.255392 0.0751414 0.329753 0.339714) 1 251 2
(0.138519 0.175195 0.228729 0.457557) 1 251 2
(0.155057 0.0544573 0.676817 0.113669) 1 251 2
(0.188783 0.25901 0.420647 0.13156) 1 251 2
(0.0949821 0.601553 0.108457 0.195008) 1 251 2
(0.0473293 0.165166 0.468114 0.319391) 1 251 2
(0.704008 0.0428631 0.208087 0.0450417) 1 251 2
(0.129779 0.116743 0.718798 0.0346795) 1 251 2
(0.163868 0.247837 0.389376 0.198918) 1 251 2
(0.0216133 0.0870773 0.63691 0.254399) 1 251 2
(0.207108 0.214826 0.286105 0.291961) 1 251 2
(0.0922319 0.0478571 0.706363 0.153548) 1 251 2
(0.430735 0.210896 0.0367669 0.321603) 1 251 2
(0.132006 0.215934 0.138799 0.513261) 1 376 1
(0.00567583 0.228874 0.7422 0.0232503) 1 376 1
(0.599191 0.19886 0.0400664 0.161882) 1 376 1
(0.654749 0.0487381 3.00789e-05 0.296483) 1 376 1
(0.136949 0.677407 0.04591 0.139734) 1 376 1
(0.00632021 0.265066 0.428571 0.300043) 1 376 1
(0.0108602 0.0667968 0.0519668 0.870376) 1 376 1
(0.368552 0.342987 0.0970427 0.191417) 1 376 1
(0.0433089 0.414193 0.325299 0.217199) 1 376 1
(0.0255073 0.318795 0.339264 0.316433) 1 376 1
(0.460179 0.42989 0.0955045 0.0144269) 1 376 1
(0.00574763 0.282216 0.011169 0.700867) 1 376 1
(0.0135211 0.208177 0.672438 0.105865) 1 376 1
(0.0180773 0.0705341 0.148957 0.762432) 1 376 1
(0.0694718 0.696334 0.175778 0.0584162) 1 376 1
(0.0899937 0.102223 0.125609 0.682174) 1 376 1
(0.249254 0.00398922 0.421229 0.325529) 1 376 1
(0.262066 0.509118 0.0544064 0.17441) 1 376 1
(0.0953902 0.670901 0.0209318 0.212777) 1 376 1
(0.367051 0.20146 0.107048 0.324441) 1 376 1
(0.295591 0.222643 0.444936 0.0368298) 1 376 1
(0.565537 0.307708 0.0970847 0.0296708) 1 376 2
(0.488925 0.295453 0.194876 0.0207459) 1 376 2
(0.643594 0.287357 0.0297896 0.0392596) 1 376 2
(0.229928 0.169745 0.436441 0.163886) 1 376 2
(0.101817 0.143153 0.575744 0.179286) 1 376 2
(0.259014 0.606109 0.0323132 0.102564) 1 376 2
(0.259148 0.505874 0.187373 0.0476053) 1 376 2
(0.541231 0.0734864 0.335418 0.0498646) 1 376 2
(0.501628 0.0564019 0.19094 0.251029) 1 376 2
(0.235433 0.454258 0.252377 0.0579317) 1 376 2
(0.126032 0.240577 0.605261 0.0281301) 1 376 2
(0.376628 0.00409296 0.572336 0.0469432) 1 376 2
(0.54038 0.0420408 0.259918 0.157662) 1 376 2
(0.163602 0.0514487 0.514369 0.27058) 1 376 2
(0.206725 0.0369638 0.726811 0.0294995) 1 376 2
(0.24805 0.10205 0.315897 0.334003) 1 376 2
(0.282236 0.189824 0.315448 0.212492) 1 376 2
(0.472446 0.340469 0.0942838 0.0928008) 1 376 2
(0.000293181 0.25743 0.158179 0.584097) 1 376 2
(0.35053 0.131169 0.512763 0.00553838) 1 376 2
(0.645601 0.120851 0.056452 0.177097) 1 376 2
(0.365811 0.427107 0.0388697 0.168213) 1 501 1
(0.255831 0.0396117 0.190353 0.514205) 1 501 1
(0.208154 0.0745294 0.266163 0.451154) 1 501 1
(0.461692 0.079614 0.193149 0.265545) 1 501 1
(0.107276 0.217612 0.498596 0.176516) 1 501 1
(0.342133 0.358658 0.0494566 0.249753) 1 501 1
(0.0809682 0.014817 0.458019 0.446196) 1 501 1
(0.264077 0.353853 0.312669 0.0694009) 1 501 1
(0.10259 0.74953 0.119506 0.0283738) 1 501 1
(0.00190297 0.614882 0.326211 0.0570043) 1 501 1
(0.871426 0.012116 0.0529589 0.0634995) 1 501 1
(0.181954 0.0261324 0.233201 0.558713) 1 501 1
(0.0059513 0.0260426 0.798745 0.169261) 1 501 1
(0.37009 0.0471247 0.458824 0.123961) 1 501 1
(0.54507 0.104381 0.200356 0.150193) 1 501 1
(0.0283631 0.582627 0.29435 0.0946593) 1 501 1
(0.0675331 0.585232 0.101892 0.245342) 1 501 1
(0.214056 0.200338 0.557344 0.0282608) 1 501 1
(0.346779 0.17377 0.0841046 0.395346) 1 501 1
(0.0951015 0.0726213 0.496499 0.335779) 1 501 1
(0.0363987 0.618392 0.0495273 0.295682) 1 501 1
(0.314797 0.423207 0.151769 0.110228) 1 501 2
(0.451417 0.0609743 0.43088 0.0567291) 1 501 2
(0.0702148 0.289685 0.435463 0.204637) 1 501 2
(0.427808 0.210509 0.212918 0.148765) 1 501 2
(0.146498 0.368962 0.0166604 0.46788) 1 501 2
(0.521446 0.236505 0.0204389 0.22161) 1 501 2
(0.201993 0.184707 0.605221 0.00807833) 1 501 2
(0.545232 0.0639393 0.32102 0.069809) 1 501 2
(0.110518 0.0991058 0.0413865 0.74899) 1 501 2
(0.120359 0.254991 0.136273 0.488377) 1 501 2
(0.507927 0.300306 0.0758517 0.115915) 1 501 2
(0.258151 0.23865 0.0829384 0.420261) 1 501 2
(0.169992 0.33152 0.436907 0.0615819) 1 501 2
(0.451947 0.38831 0.0905555 0.069187) 1 501 2
(0.0711904 0.787645 0.0603242 0.0808405) 1 501 2
(0.226323 0.0807433 0.00598465 0.686949) 1 501 2
(0.210539 0.0222122 0.436355 0.330894) 1 501 2
(0.284764 0.022566 0.250045 0.442625) 1 501 2
(0.321982 0.00069706 0.378715 0.298606) 1 501 2
(0.0683894 0.765312 0.163923 0.00237547) 1 501 2
(0.0258637 0.40128 0.481705 0.0911517) 1 501 2
(0.795439 0.0135079 0.178464 0.0125892) 1 0 1
(0.534267 0.095896 0.235554 0.134282) 1 0 1
(0.383327 0.0113203 0.294644 0.310709) 1 0 1
(0.016764 0.367208 0.148859 0.467169) 1 0 1
(0.29709 0.35409 0.0539235 0.294897) 1 0 1
(0.225784 0.567736 0.0728024 0.133678) 1 0 1
(0.309534 0.0410578 0.150553 0.498855) 1 0 1
(0.0105045 0.563207 0.273581 0.152708) 1 0 1
(0.0818922 0.0902699 0.462127 0.36571) 1 0 1
(0.129932 0.266189 0.356581 0.247299) 1 0 1
(0.3367 0.124866 0.00875761 0.529676) 1 0 1
(0.375302 0.154022 0.440331 0.0303451) 1 0 1
(0.594002 0.226793 0.104426 0.0747778) 1 0 1
(0.298633 0.184945 0.37119 0.145231) 1 0 1
(0.366782 0.267452 0.134827 0.230939) 1 0 1
(0.206761 0.424609 0.18294 0.185689) 1 0 1
(0.475463 0.0715157 0.392964 0.0600577) 1 0 1
(0.19141 0.0695012 0.263654 0.475435) 1 0 1
(0.127799 0.578613 0.0374743 0.256114) 1 0 1
(0.348684 0.349842 0.117131 0.184343) 1 0 1
(0.00463857 0.0175671 0.973659 0.00413502) 1 0 1
(0.13982 0.255159 0.230151 0.37487) 1 0 2
(0.0205159 0.165609 0.332702 0.481174) 1 0 2
(0.104448 0.528309 0.115363 0.251879) 1 0 2
(0.505988 0.383637 0.0363101 0.0740644) 1 0 2
(0.16875 0.296754 0.37124 0.163255) 1 0 2
(0.195027 0.152606 0.172281 0.480086) 1 0 2
(0.538557 0.0464368 0.00619289 0.408813) 1 0 2
(0.141365 0.414231 0.309314 0.135091) 1 0 2
(0.569531 0.337995 0.00799156 0.0844829) 1 0 2
(0.744866 0.00516467 0.0530897 0.196879) 1 0 2
(0.229614 0.331473 0.106735 0.332178) 1 0 2
(0.167237 0.255835 0.384481 0.192447) 1 0 2
(0.501053 0.490677 0.00810091 0.000168996) 1 0 2
(0.55135 0.366583 0.0231608 0.0589055) 1 0 2
(0.247183 0.343095 0.218277 0.191446) 1 0 2
(0.0814805 0.0884956 0.14546 0.684563) 1 0 2
(0.461103 0.0774309 0.201501 0.259965) 1 0 2
(0.231775 0.284022 0.0995997 0.384604) 1 0 2
(0.32453 0.20357 0.176584 0.295316) 1 0 2
(0.362557 0.135484 0.485791 0.0161682) 1 0 2
(0.332879 0.221313 0.0375546 0.408253) 1 0 2
(0.0967513 0.421706 0.365926 0.115617) 2 2 1
(0.282138 0.242895 0.00689023 0.468077) 2 2 1
(0.424156 0.141104 0.0870337 0.347707) 2 2 1
(0.431355 0.130454 0.278612 0.159578) 2 2 1
(0.382551 0.23262 0.222209 0.162621) 2 2 1
(0.249787 0.48998 0.245885 0.0143481) 2 2 1
(0.409374 0.338348 0.16926 0.0830187) 2 2 1
(0.0450476 0.684589 0.200401 0.0699626) 2 2 1
(0.341739 0.0387691 0.124128 0.495364) 2 2 1
(0.205149 0.524968 0.113793 0.15609) 2 2 1
(0.832233 0.0180901 0.0598523 0.0898251) 2 2 1
(0.144825 0.728399 0.0729395 0.0538357) 2 2 1
(0.0695764 0.182525 0.567984 0.179915) 2 2 1
(0.165392 0.24285 0.478826 0.112932) 2 2 1
(0.195765 0.143165 0.32793 0.333141) 2 2 1
(0.0201652 0.710364 0.114898 0.154573) 2 2 1
(0.867999 0.0452929 0.0303581 0.0563498) 2 2 1
(0.311279 0.0485231 0.503137 0.137061) 2 2 1
(0.118659 0.178347 0.353972 0.349023) 2 2 1
(0.0523817 0.651048 0.0726084 0.223962) 2 2 1
(0.402655 0.208101 0.31817 0.0710736) 2 2 1
(0.668533 0.161907 0.0312987 0.138261) 2 2 2
(0.581074 0.136831 0.0550698 0.227025) 2 2 2
(0.00983203 0.0936941 0.242777 0.653696) 2 2 2
(0.347466 0.319819 0.130837 0.201878) 2 2 2
(0.29206 0.278112 0.108831 0.320997) 2 2 2
(0.0638139 0.137328 0.0285522 0.770306) 2 2 2
(0.142129 0.453064 0.00530344 0.399504) 2 2 2
(0.0392393 0.22628 0.230656 0.503825) 2 2 2
(0.264867 0.360094 0.280011 0.0950275) 2 2 2
(0.27605 0.289927 0.242552 0.191471) 2 2 2
(0.0389867 0.107868 0.239341 0.613805) 2 2 2
(0.403306 0.220998 0.315586 0.0601094) 2 2 2
(0.377736 0.108008 0.115314 0.398942) 2 2 2
(0.320701 0.206553 0.225183 0.247564) 2 2 2
(0.0191116 0.650614 0.223371 0.106903) 2 2 2
(0.128911 0.212076 0.253048 0.405965) 2 2 2
(0.350596 0.0749898 0.217003 0.357412) 2 2 2
(0.426237 0.146961 0.250732 0.176071) 2 2 2
(0.0589038 0.134874 0.417709 0.388513) 2 2 2
(0.238099 0.139639 0.222536 0.399726) 2 2 2
(0.0767112 0.287974 0.520484 0.114831) 2 2 2
(0.334899 0.249523 0.155622 0.259957) 2 127 1
(0.223566 0.390753 0.350588 0.0350929) 2 127 1
(0.296699 0.312189 0.0110392 0.380072) 2 127 1
(0.0514923 0.0509359 0.0799903 0.817582) 2 127 1
(0.46054 0.199984 0.332571 0.00690504) 2 127 1
(0.127819 0.0673016 0.187559 0.61732) 2 127 1
(0.131576 0.235056 0.0425873 0.590781) 2 127 1
(0.1786 0.0333159 0.515571 0.272513) 2 127 1
(0.630698 0.125525 0.0986457 0.145132) 2 127 1
(0.174967 0.0930005 0.581324 0.150709) 2 127 1
(0.11478 0.0988777 0.756921 0.0294212) 2 127 1
(0.0409239 0.111733 0.726415 0.120929) 2 127 1
(0.510148 0.169526 0.136327 0.184) 2 127 1
(0.066051 0.00605574 0.377801 0.550092) 2 127 1
(0.100357 0.2032 0.532567 0.163875) 2 127 1
(0.48186 0.140579 0.0249481 0.352613) 2 127 1
(0.697008 0.000485511 0.057732 0.244774) 2 127 1
(0.311049 0.224758 0.392925 0.0712681) 2 127 1
(0.317202 0.0746711 0.0780295 0.530098) 2 127 1
(0.0928091 0.0402437 0.467061 0.399886) 2 127 1
(0.176537 0.198649 0.186285 0.43853) 2 127 1
(0.000637725 0.491311 0.162971 0.34508) 2 127 1
(0.481211 0.323753 0.0648707 0.130165) 2 127 2
(0.265031 0.296044 0.0691572 0.369768) 2 127 2
(0.0910303 0.0185324 0.106369 0.784069) 2 127 2
(0.913317 0.0199229 0.0193942 0.0473662) 2 127 2
(0.473898 0.0827016 0.219582 0.223819) 2 127 2
(0.00559607 0.777698 0.21435 0.00235622) 2 127 2
(0.117397 0.340514 0.302672 0.239417) 2 127 2
(0.536914 0.106723 0.198263 0.1581) 2 127 2
(0.249043 0.30819 0.410642 0.0321253) 2 127 2
(0.457385 0.330329 0.183591 0.0286951) 2 127 2
(0.775739 0.0427228 0.111557 0.0699813) 2 127 2
(0.0315906 0.633744 0.216032 0.118633) 2 127 2
(0.131138 0.138221 0.23155 0.499091) 2 127 2
(0.0492349 0.237155 0.311116 0.402494) 2 127 2
(0.0527498 0.120273 0.618643 0.208334) 2 127 2
(0.0633428 0.248318 0.426649 0.26169) 2 127 2
(0.0838226 0.512413 0.161994 0.241771) 2 127 2
(0.612516 0.0113578 0.0896608 0.286465) 2 127 2
(0.00218161 0.748643 0.103115 0.146061) 2 127 2
(0.201961 0.138992 0.117843 0.541204) 2 127 2
(0.10457 0.414647 0.0747582 0.406025) 2 127 2
(0.0904898 0.0336467 0.321581 0.554283) 2 252 1
(0.653385 0.195709 0.0141261 0.13678) 2 252 1
(0.470663 0.180225 0.064911 0.284201) 2 252 1
(0.329006 0.149799 0.0139829 0.507213) 2 252 1
(0.723713 0.12436 0.110605 0.0413214) 2 252 1
(0.111336 0.179352 0.401945 0.307366) 2 252 1
(0.270302 0.117369 0.0387426 0.573587) 2 252 1
(0.062778 0.509245 0.145078 0.282899) 2 252 1
(0.655438 0.146732 0.122586 0.0752443) 2 252 1
(0.354679 0.00256292 0.0133255 0.629433) 2 252 1
(0.536641 0.223566 0.154282 0.0855111) 2 252 1
(0.178854 0.112694 0.436231 0.27222) 2 252 1
(0.16665 0.0667453 0.247537 0.519068) 2 252 1
(0.158139 0.0591764 0.0250693 0.757615) 2 252 1
(0.680703 0.0462309 0.263148 0.00991763) 2 252 1
(0.230174 0.142711 0.603033 0.0240819) 2 252 1
(0.214392 0.281927 0.134187 0.369494) 2 252 1
(0.0407689 0.261453 0.063264 0.634515) 2 252 1
(0.238792 0.456276 0.112625 0.192308) 2 252 1
(0.28187 0.269941 0.138074 0.310114) 2 252 1
(0.218873 0.161055 0.479242 0.14083) 2 252 1
(0.0215908 0.182193 0.552167 0.244049) 2 252 2
(0.107984 0.688809 0.190864 0.0123429) 2 252 2
(0.025893 0.266085 0.601628 0.106394) 2 252 2
(0.184324 0.295701 0.0514362 0.468539) 2 252 2
(0.487403 0.20919 0.13589 0.167516) 2 252 2
(0.0400626 0.399029 0.101954 0.458954) 2 252 2
(0.285158 0.0247712 0.557126 0.132946) 2 252 2
(0.406861 0.0505521 0.320556 0.222031) 2 252 2
(0.229566 0.0718637 0.669471 0.0290987) 2 252 2
(0.156209 0.374393 0.0209835 0.448414) 2 252 2
(0.112807 0.0383596 0.818543 0.0302912) 2 252 2
(0.158426 0.00576932 0.0802178 0.755587) 2 252 2
(0.0514996 0.0159691 0.108932 0.8236) 2 252 2
(0.161489 0.378059 0.205392 0.25506) 2 252 2
(0.136108 0.217919 0.086384 0.559589) 2 252 2
(0.0249635 0.15864 0.535809 0.280588) 2 252 2
(0.425098 0.413715 0.155542 0.00564578) 2 252 2
(0.277766 0.0821743 0.583933 0.0561262) 2 252 2
(0.513368 0.379472 0.0131469 0.0940135) 2 252 2
(0.585937 0.00321756 0.336423 0.0744226) 2 252 2