/*--------------------------------*- C++ -*----------------------------------*\
  =========                 |
  \\      /  F ield         | OpenFOAM: The Open Source CFD Toolbox
   \\    /   O peration     | Website:  https://openfoam.org
    \\  /    A nd           | Version:  7
     \\/     M anipulation  |
\*---------------------------------------------------------------------------*/
FoamFile
{
    version     2.0;
    format      ascii;
    class       vectorField;
    location    "0/lagrangian/dsmc";
    object      U;
}
// * * * * * * * * * * * * * * * * * * * * * * * * * * * * * * * * * * * * * //


31774
(
(141.338 -614.839 -365.644)
(446.19 -278.261 179.723)
(-163.835 -6.66759 -702.085)
(225.529 -569.8 217.705)
(193.164 -115.145 -541.678)
(-112.14 -18.5931 -399.952)
(-399.07 715.277 445.972)
(-1127.45 -612.925 -404.712)
(559.02 409.402 -462.717)
(253.317 933.808 -431.818)
(605.369 268.4 119.661)
(92.5081 -638.963 483.756)
(-205.143 170.266 -664.153)
(96.0503 -144.948 -669.748)
(28.9053 465.661 512.854)
(-36.2218 -586.151 -155.791)
(-285.99 -133.983 -358.642)
(-143.346 -699.012 -29.4706)
(-260.586 -121.056 376.766)
(253.581 -68.8822 -108.729)
(350.845 78.1573 -424.697)
(116.142 295 -719.109)
(655.157 137.075 351.572)
(1509.65 544.249 334.337)
(21.9288 903.72 23.0633)
(-147.272 248.751 193.679)
(90.8214 569.946 1075.57)
(175.971 234.633 -877.538)
(-713.21 -141.974 63.6638)
(762.174 -64.7738 -443.498)
(-789.095 -97.0627 -1399.53)
(736.948 -29.189 133.394)
(-292.923 670.732 60.3054)
(104.18 -271.638 581.978)
(-838.541 751.081 203.963)
(-590.558 -327.666 306.002)
(917.884 230.251 -695.752)
(-202.12 714.104 21.1292)
(307.597 -1457.22 32.654)
(195.529 813.843 -178.94)
(-54.0038 -857.824 -374.449)
(-101.996 710.343 -26.2352)
(-816.053 -354.209 -18.9077)
(-44.3057 634.766 150.898)
(439.622 407.128 -153.165)
(744.765 40.5676 316.455)
(460.197 804.146 216.13)
(-516.481 -206.795 -610.766)
(373.445 209.267 203.298)
(342.571 521.489 -644.992)
(-702.172 478.531 -736.159)
(-182.806 -557.967 504.521)
(128.854 373.078 -359.514)
(176.304 69.7296 -2.67693)
(98.3049 -1030.99 31.902)
(1183.11 401.699 -223.698)
(-324.613 -330.232 -1391.9)
(170.895 -552.368 727.057)
(700.666 62.55 27.1198)
(482.019 -265.421 -1176.04)
(158.108 506.494 -285.54)
(-89.1119 563.137 1461.64)
(858.729 -59.863 966.171)
(96.7881 -410.09 193.14)
(-83.265 22.437 331.221)
(-646.339 -244.474 -478.416)
(-504.337 257.433 -353.613)
(-654.7 817.166 -386.492)
(665.271 265.86 794.519)
(-703.569 -1333.98 228.678)
(459.991 -197.9 405.96)
(572.246 -82.6616 -371.955)
(152.463 -1206.31 -52.1458)
(-951.165 -338.077 -453.599)
(-510.517 91.3547 112.791)
(737.21 115.839 26.3296)
(282.58 445.061 31.3372)
(694.09 892.398 107.466)
(-173.943 603.035 -383.078)
(-581.121 -386.455 -580.598)
(34.9843 821.777 -205.639)
(187.007 598.287 705.605)
(342.247 1102.72 149.794)
(-798.255 383.872 -327.878)
(-107.096 270.653 -600.732)
(351.296 -161.722 226.483)
(182.737 477.968 -701.837)
(457.136 70.399 -227.932)
(589.89 455.368 555.858)
(82.074 63.0417 -257.452)
(349.066 -231.003 -1149.36)
(-112.307 -817.267 200.214)
(-459.267 799.202 71.933)
(125.389 91.9885 161.768)
(-358.652 141.128 303.362)
(249.895 17.0288 -56.9688)
(-716.363 12.9543 -45.265)
(519.245 -45.0712 28.3192)
(-508.927 1090.58 -72.8689)
(-91.3941 905.136 -426.623)
(482.265 74.9812 -11.3416)
(162.093 -58.7548 -582.817)
(42.9424 450.881 -759.386)
(-367.728 -524.757 316.498)
(-294.578 409.204 359.427)
(-128.662 670.456 -1185.45)
(546.151 -75.6316 -316.974)
(310.233 216.776 817.07)
(-154.295 660.849 -1218.51)
(80.2692 683.645 -586.563)
(583.572 -534.41 -35.4262)
(90.6459 -802.4 195.876)
(383.646 -430.479 618.368)
(-152.42 292.792 116.772)
(333.266 359.536 430.819)
(513.331 -160.682 -4.41238)
(-677.737 735.198 -409.526)
(-550.282 156.246 525.762)
(-300.909 205.813 -419.787)
(-588.76 -227.54 -287.87)
(-961.504 -608.827 508.418)
(21.842 -122.684 -139.717)
(-182.963 501.629 -38.6419)
(-857.583 -432.367 -227.388)
(715.282 220.697 521.058)
(130.531 -29.2931 -54.4187)
(-1.06655 204.232 8.8049)
(280.198 223.172 -394.194)
(162.965 177.038 203.624)
(688.683 133.571 325.67)
(1176.9 140.733 -96.1331)
(-328.598 -755.796 121.912)
(534.686 -390.503 -134.425)
(792.893 568.279 792.933)
(771.467 -10.592 1000.62)
(-669.889 -995.028 163.428)
(76.6065 238.378 801.163)
(-105 48.4281 -489.176)
(-263.321 -725.726 -676.564)
(-574.767 -83.4411 -191.141)
(13.1072 -13.5377 -253.753)
(299.934 -719.404 19.7286)
(-291.478 -2.32689 1323.2)
(-427.737 173.662 39.8848)
(701.181 -37.2868 -90.8991)
(-448.039 -363.849 316.346)
(-26.5449 -106.834 -154.005)
(980.34 231.659 224.51)
(-152.93 -199.596 413.947)
(-204.687 -355.09 490.246)
(198.38 -721.368 21.6825)
(0.832406 267.14 -299.002)
(-732.115 136.842 -439.395)
(903.167 703.452 211.589)
(750.497 -327.575 509.443)
(501.247 469.322 -237.097)
(875.185 147.247 319.95)
(916.904 311.168 -282.119)
(-150.804 -506.267 183.837)
(-24.4069 -100.712 340.596)
(571.78 -426.759 -434.731)
(438.469 710.053 -227.567)
(1849.03 191.461 242.586)
(-33.8723 218.457 -57.0724)
(-151.676 331.915 17.3047)
(-461.004 -1130.34 -77.3752)
(-913.373 -681.714 -182.974)
(253.329 13.4437 587.581)
(-605.576 455.977 -1232.55)
(1348.37 -567.106 181.098)
(-359.688 66.456 773.56)
(697.901 758.81 653.054)
(445.409 7.95957 -361.379)
(1064.11 165.372 235.653)
(-99.2404 312.303 -90.0775)
(-502.186 160.823 750.212)
(-99.4017 159.857 6.95344)
(-90.6037 -745.128 811.792)
(50.9285 609.965 -180.642)
(-299.778 -304.373 -528.847)
(334.412 437.712 -246.694)
(-282.152 1144.31 684.597)
(46.0229 -273.74 356.707)
(141.075 148.365 -1006.12)
(-507.567 451.47 690.363)
(-696.38 340.148 -5.22589)
(716.919 422.025 212.586)
(-873.93 303.831 749.256)
(-190.365 449.388 -190.508)
(-1.17237 290.456 404.018)
(-207.376 73.5302 465.637)
(-430.377 573.236 1121.04)
(341.396 284.522 -811.51)
(-144.162 843.85 377.478)
(690.301 198.704 641.746)
(-337.968 -680.223 578.249)
(20.5133 635.661 601.004)
(84.4433 -324.499 -1066.21)
(135.265 227.275 -604.556)
(-32.2302 -162.47 -60.8607)
(-608.622 -64.9618 -15.7846)
(-172.326 247.024 403.421)
(-884.544 358.828 -389.637)
(-481.281 -513.714 126.2)
(-300.29 -641.794 -389.848)
(-422.032 -491.934 -566.193)
(72.4305 -301.778 358.506)
(-56.6591 -253.975 -548.638)
(-661.885 -1135.91 -219.006)
(-73.7423 -791.454 -48.4208)
(-570.415 -224.901 589.218)
(-97.0546 -1467.36 -147.193)
(441.057 157.959 2.82658)
(-93.4025 -148.608 563.228)
(-1056.02 -23.955 -197.606)
(-608.731 -81.0431 452.729)
(-632.705 -155.149 348.439)
(357.663 -392.322 648.043)
(123.782 -414.604 -17.077)
(379.374 290.933 91.5715)
(-114.406 -956.139 61.9353)
(96.0179 411.399 211.511)
(678.87 690.995 -796.001)
(-116.825 292.892 -732.691)
(464.622 -165.242 -980.442)
(-318.008 -678.111 -503.651)
(-369.635 -210.247 -601.067)
(552.515 -677.333 20.043)
(-371.363 172.234 -202.783)
(-37.8628 -227.346 298.817)
(-97.4923 168.906 -146.098)
(-1046.67 114.342 -279.121)
(145.578 310.588 -569.003)
(-213.169 -157.266 -516.1)
(261.174 150.712 -417.167)
(283.609 -966.323 434.523)
(656.117 41.5922 -138.689)
(1253 -614.896 52.7585)
(610.205 487.939 -373.304)
(-166.584 -686.042 107.516)
(-111.501 -212.493 -830.953)
(13.907 -292.841 689.944)
(302.513 -402.138 909.149)
(-409.251 1001.22 -32.3554)
(172.621 -1081.26 34.7932)
(202.097 1026.14 588.788)
(-1368.18 541.329 -99.2329)
(-208.63 294.972 -798.811)
(-237.798 -546.572 -236.72)
(652.94 583.8 262.785)
(-480.487 6.13066 31.2113)
(-309.175 68.7182 -409.507)
(809.711 -672.912 399.515)
(509.69 -460.931 110.244)
(-826.918 -391.308 -534.355)
(-1245.16 -216.577 420.507)
(292.107 -978.454 348.254)
(-600.638 -404.759 -251.319)
(-356.003 598.958 221.314)
(262.335 -203.153 -1140.65)
(-322.219 -178.76 131.278)
(-1.82017 23.2825 -161.76)
(816.727 -67.4501 385.021)
(-270.737 -15.9849 387.181)
(-458.188 -290.927 17.5456)
(-220.843 61.5055 546.609)
(707.85 -423.857 82.702)
(258.741 -564.356 440.537)
(-416.123 -1243.93 -10.811)
(188.251 -477.342 454.508)
(-588.883 -291.867 457.357)
(669.518 33.6021 -120.587)
(-44.7176 302.716 252.187)
(-238.129 528.177 88.0245)
(718.371 46.3145 775.954)
(55.7608 941.005 214.967)
(321.269 -132.015 -177.967)
(630.108 861.765 1085.93)
(262.569 29.9128 -410.201)
(307.724 -176.692 285.622)
(-119.163 -1145.3 360.315)
(3.91473 -202.954 -216.88)
(-480.566 147.882 340.729)
(-203.082 -547.537 -196.967)
(-351.252 423.711 197.506)
(-148.068 -116.485 75.8632)
(-361.08 248.515 -65.043)
(-195.445 -950.537 -353.347)
(-305.888 -298.653 -342.83)
(628.141 560.968 18.0035)
(135.925 -200.891 457.357)
(-1241.09 58.656 525.503)
(230.323 230.675 138.678)
(206.712 503.054 677.206)
(516.931 211.94 -2.05217)
(-704.328 365.19 -494.773)
(157.289 -201.942 601.8)
(642.939 429.871 -708.187)
(107.118 -142.421 511.382)
(267.559 278.384 710.319)
(197.739 -1195.34 -540.916)
(-735.054 -1041.9 -49.2092)
(-162.725 323.097 -134.042)
(191.54 1198.42 -557.282)
(876.876 -285.888 -20.3059)
(-227.682 11.0417 -398.013)
(-1588.66 75.0565 -202.203)
(283.188 -465.825 -591.351)
(374.068 -577.096 -819.072)
(883.484 263.821 796.671)
(-594.396 674.512 606.936)
(-222.853 162.714 -0.886751)
(-295 -165.195 1484.16)
(-544.159 258.624 -188.216)
(627.073 323.91 179.607)
(193.576 97.5902 782.499)
(588.3 887.572 592.772)
(216.816 -87.037 97.7803)
(-494.964 549.594 709.214)
(548.428 -403.582 289.243)
(-191.44 88.51 -606.77)
(46.4973 -202.676 -251.11)
(-328.074 803.213 -131.576)
(442.418 22.4299 411.494)
(-225.841 -110.616 -231.762)
(23.7211 -409.601 -318.854)
(72.1847 -244.961 280.691)
(-422.292 757.414 -1206.13)
(195.428 -1103.38 800.007)
(-130.94 -312.297 -244.825)
(-1237.81 46.029 513.48)
(1557.35 289.402 86.0001)
(631.618 -537.151 302.475)
(-949.094 41.5042 -273.987)
(236.176 -684.849 -897.771)
(592.343 -538.697 179.032)
(-767.959 800.33 -199.513)
(219.288 -526.054 -964.444)
(140.606 -587.732 396.166)
(698.146 972.463 76.5797)
(74.5201 -349.201 93.1649)
(304.055 -473.044 -122.154)
(-245.03 385.942 -678.777)
(-819.51 152.479 -408.758)
(264.354 -369.824 -849.251)
(408.13 12.7584 -589.584)
(718.201 78.3602 128.621)
(-17.7916 440.654 -234.792)
(817.676 668.345 -540.791)
(-330.098 265.057 -473.023)
(64.0705 52.6247 281.988)
(338.44 -785.989 -397.32)
(-105.197 535.693 -392.42)
(835.4 638.845 -550.693)
(-85.9995 -1231.63 -407.693)
(527.887 -503.391 265.184)
(-484.843 -383.915 -598.553)
(138.524 422.52 -254.799)
(-575.494 633.561 -466.258)
(-914.993 -99.6684 85.9993)
(-158.877 -39.4278 138.302)
(-693.314 -337.132 169.009)
(220.932 302.068 -299.116)
(-110.024 -954.89 194.378)
(-85.0695 150.765 -790.021)
(-297.751 -500.435 -65.9513)
(457.865 -109.527 -597.383)
(-211.689 -452.489 826.569)
(-1470.58 494.823 -20.4278)
(-206.002 -776.258 -75.6966)
(-345.856 591.961 926.892)
(-638.786 -393.13 -1063.7)
(-315.912 960.021 516.522)
(167.693 -318.667 495.824)
(-320.598 -445.457 -579.389)
(-495.359 -293.599 -1014.57)
(59.7823 -615.046 1157.26)
(-106.539 522.783 -930.105)
(-500.308 352.315 90.4976)
(356.401 -185.479 594.637)
(64.6494 607.86 501.763)
(143.765 -63.5276 -678.982)
(211.667 47.3577 -105.691)
(-55.1432 1017.79 600.466)
(163.956 -447.86 -388.11)
(-105.64 -121.473 -969.84)
(501.282 -143.672 248.915)
(871.804 -658.694 389.634)
(-90.1665 -743.071 136.945)
(-7.11817 832.762 -196.074)
(195.52 1282.45 485.027)
(-1075.71 -384.289 231.902)
(-198.156 -687.852 -404.121)
(-185.29 371.395 482.068)
(449.273 217.331 -95.3367)
(-883.318 -694.964 -45.8971)
(11.8731 -179.922 -283.505)
(1053.33 -481.053 932.007)
(-431.983 -170.35 241.869)
(341.642 188.31 -717.447)
(-332.33 -1710.45 410.084)
(-283.518 1068.37 227.351)
(500.541 -548.599 484.346)
(-1345.89 424.42 422.314)
(-180.88 -526.572 412.356)
(1250.46 375.747 4.42658)
(-182.095 843.977 -502.74)
(232.349 443.974 314.453)
(428.92 909.906 395.255)
(-128.744 -23.7573 -291.59)
(-39.2458 -174.19 -346.735)
(25.9974 246.071 -161.998)
(-53.7802 313.87 426.679)
(-182.747 242.731 -877.873)
(-352.87 517.368 240.925)
(709.965 -69.5991 473.265)
(193.169 -1043.49 6.22206)
(326.143 417.131 -288.854)
(-217.964 78.9426 218.299)
(-401.979 273.161 900.349)
(1316.67 -546.334 99.7597)
(915.757 -516.587 -497.985)
(615.241 -276.089 -930.607)
(-63.7767 242.231 -215.846)
(-571.188 -141.978 368.316)
(-1202.7 330.476 692.295)
(738.391 11.9493 -416.072)
(11.4931 122.506 -702.41)
(346.458 373.083 272.585)
(224.23 -1164.3 -555.785)
(-296.939 403.61 -409.292)
(764.144 -985.241 -771.991)
(-194.239 571.927 -784.149)
(929.654 302.397 549.753)
(-474.135 -234.932 161.05)
(2047.69 209.342 -346.664)
(-445.918 -27.6401 -834.799)
(124.729 444.298 742.934)
(-52.5986 446.032 200.15)
(-1112.14 -550.678 157.405)
(250.418 308.175 390.311)
(-593.481 -721.933 395.732)
(430.158 -355.581 -145.001)
(-492.029 366.769 -256.908)
(-578.872 76.3597 888.512)
(-148.971 -187.068 733.167)
(-1302.13 -265.353 727.919)
(-219.826 -465.972 -851.031)
(727.354 -961.615 -1414.7)
(-427.646 914.629 141.289)
(224.428 -143.087 239.084)
(-667.156 -376.154 739.978)
(484.457 1101.25 109.058)
(358.068 237.139 -87.6546)
(-84.5999 525.368 -261.566)
(-672.947 1374.33 -1708.8)
(-346.878 445.054 -299.711)
(714.522 -460.626 -963.605)
(221.344 -505.075 -137.881)
(23.347 -333.646 1011.58)
(343.58 -204.882 -694.007)
(164.717 79.0262 573.932)
(140.843 703.864 -105.202)
(-1014.36 -411.194 321.872)
(-638.978 -339.868 -363.591)
(215.554 -645.865 -103.24)
(532.066 360.977 -297.956)
(-289.66 -185.945 -261.977)
(-354.301 -299.038 -121.906)
(-1.60959 -312.069 378.287)
(288.759 -29.4959 -197.142)
(260.32 133.297 -376.957)
(114.03 -529.843 -29.1995)
(309.186 99.9111 -68.2448)
(48.5084 -485.285 -36.2646)
(699.471 340.256 1027.45)
(298.189 -379.688 -725.456)
(-513.651 -282.841 423.595)
(-702.626 62.9097 -95.4174)
(557.093 -404.5 -767.094)
(178.981 98.1954 801.702)
(-433.855 143.91 19.1421)
(-791.667 -203.892 3.56911)
(653.477 253.086 313.454)
(-549.784 -27.6901 831.685)
(-1086.21 -279.224 354.342)
(636.777 391.019 639.142)
(-270.176 397.311 1540.89)
(-642.255 -22.8801 -155.817)
(503.281 -519.376 80.8146)
(400.271 -282.989 -1069.66)
(-649.977 -1.10121 -951.243)
(-288.19 -542.313 443.293)
(930.336 -30.3992 1139.48)
(-907.79 -203.95 587.961)
(249.691 709.825 399.139)
(-725.997 -357.021 200.209)
(575.475 173.115 -545.166)
(-98.5067 569.257 -300.053)
(1303.04 923.931 637.391)
(-180.206 57.4396 -546.689)
(61.7046 91.9283 622.048)
(714.346 -207.644 225.004)
(-236.02 991.904 346.71)
(49.3798 -287.114 396.278)
(-284.493 -359.439 539.293)
(-95.23 493.82 -161.997)
(872.264 -782.207 229.259)
(-124.33 363.797 -710.15)
(558.898 456.41 743.955)
(-112.291 181.483 -312.678)
(158.629 -202.997 327.549)
(-214.024 478.008 663.145)
(239.193 366.114 378.866)
(-1034.87 54.9937 -1144.36)
(61.9739 -172.183 -424.923)
(-303.641 329.369 -95.8093)
(-383.973 386.564 260.145)
(-233.375 -109.417 484.013)
(882.343 604.487 27.08)
(-145.817 487.754 -318.273)
(-32.9648 -185.518 485.893)
(-296.61 -33.6277 352.648)
(-765.993 -42.8706 -1.49202)
(-277.137 -110.077 -172.815)
(621.615 -279.037 804.696)
(269.719 -416.199 -85.2716)
(571.372 -257.269 -140.933)
(-566.21 10.1968 -197.386)
(315.093 -697.794 -540.907)
(-1263.38 819.162 841.678)
(-207.473 -107.621 -274.068)
(33.3637 -987.494 -450.925)
(-352.279 118.981 -539.51)
(313.467 104.723 99.6937)
(155.767 -339.327 -197.444)
(28.3534 -988.269 -245.79)
(12.593 -1395.59 987.006)
(-709.044 163.794 1100.27)
(-272.974 -5.60953 135.642)
(601.101 -723.612 680.905)
(-399.587 273.281 -365.639)
(300.566 1315.51 295.861)
(312.491 75.6361 499.672)
(401.227 -606.426 -26.7757)
(-1065.24 717.302 -51.4793)
(-47.7407 74.9954 558.657)
(-100.688 -435.965 332.287)
(243.207 165.066 -151.065)
(320.507 114.34 -155.768)
(553.28 453.053 810.39)
(1194.86 -499.419 457.148)
(1357.74 -343.473 644.485)
(-167.916 -567.222 340.834)
(321.727 -372.453 880.265)
(-221.659 -229.573 -441.692)
(338.565 557.746 275.923)
(-192.64 -262.238 369.552)
(-992.225 22.5618 -108.386)
(387.093 154.601 -219.183)
(299.198 -306.954 -47.5406)
(-157.052 155.447 629.452)
(774.014 -644.844 -432.419)
(-1.493 -596.604 -521.433)
(-886.892 -333.469 377.892)
(471.577 -352.436 189.13)
(193.642 -224.877 -178.872)
(-652.125 8.53219 -501.739)
(-78.7614 -51.5666 125.629)
(344.768 231.831 331.736)
(514.376 -1500.79 128.72)
(-270.122 -516.606 218.175)
(-334.338 91.7514 -443.057)
(-234.931 -316.782 353.824)
(-150.421 -477.96 -74.0179)
(-123.336 483.804 109.569)
(-684.883 71.5821 -931.377)
(618.115 370.616 155.27)
(-302.295 552.074 212.879)
(996.968 403.413 -62.0649)
(-836.288 -75.4866 365.57)
(-595.255 -902.243 568.229)
(536.594 249.839 59.7121)
(63.0246 72.6968 795.91)
(582.439 252.488 -447.657)
(-278.909 616.926 579.56)
(-932.608 -405.419 137.201)
(-435.742 329.322 59.2463)
(243.747 -921.685 -393.937)
(-1181.3 -148.829 -1.53038)
(-746.405 -255.93 408.429)
(-3.68454 -77.4042 277.47)
(404.145 -1061.81 134.027)
(189.921 246.963 -234.835)
(845.787 -325.533 -325.079)
(-369.836 -9.6731 719.478)
(-485.111 -628.298 -253.555)
(137.214 140.64 -249.025)
(636.252 646.841 1317.91)
(80.4246 -84.5509 -303.262)
(126.964 31.017 198.495)
(-68.8237 -100.024 69.4361)
(683.362 376.063 -941.53)
(1231.27 127.728 424.331)
(481.385 -902.348 222.35)
(159.233 -319.408 -61.3865)
(-797.272 -1082.4 -539.342)
(523.341 70.1476 -731.923)
(1008.51 -543.033 313.2)
(-540.121 179.931 -726.981)
(57.1679 -472.316 424.858)
(256.504 584.835 616.121)
(-147.496 280.519 -484.756)
(-1181.98 445.066 -30.257)
(1230.54 -283.73 -889.731)
(17.7208 -303.953 505.369)
(482.394 -179.732 -159.881)
(-862.11 543.082 -64.7422)
(150.729 -1130.63 -539.548)
(-27.8664 -704.182 14.384)
(-597.098 -175.682 88.0542)
(-1086.06 -447.961 142.224)
(454.97 347.197 591.553)
(241.551 300.163 -81.8721)
(-428.609 208.38 -906.827)
(-437.915 627.575 -233.317)
(-59.346 1052.9 -713.622)
(271.568 571.98 -874.716)
(-153.582 117.72 -582.843)
(-1236.57 455.559 -925.646)
(309.793 791.658 -220.163)
(469.639 -651.252 1124.58)
(396.952 280.265 739.144)
(-542.109 1034.11 -110.192)
(-307.858 -1035.16 -1098.25)
(295.053 -1037.49 -549.591)
(185.242 -729.902 352.527)
(957.154 16.0855 -651.519)
(781.522 45.5473 1118.21)
(-56.6867 214.658 -178.994)
(334.799 -299.471 -355.205)
(-138.545 371.005 117.19)
(266.347 -327.443 302.345)
(-181.379 342.501 477.765)
(-505.326 502.923 -966.605)
(-1295.61 -477.224 -612.67)
(247.098 330.788 -346.285)
(-334.369 899.391 -97.3136)
(620.153 297.1 864.318)
(648.432 -994.444 998.989)
(464.236 -1000.73 512.773)
(-196.06 -915.472 -386.869)
(1234.07 -477.815 754.094)
(-847.61 -73.3423 1595.49)
(49.0011 624.491 -160.632)
(-45.6725 282.021 699.543)
(-562.718 -294.833 1112.79)
(35.4616 -738.66 1517.2)
(-701.574 393.358 540.921)
(251.939 58.641 210.75)
(-157.258 -16.7932 375.344)
(518.124 507.202 140.218)
(-538.536 -243.765 678.884)
(319.081 173.989 99.7263)
(6.70493 -218.972 874.046)
(610.801 336.55 14.1421)
(-153.343 -268.643 132.618)
(806.175 -655.118 -382.916)
(70.0686 167.467 1550.58)
(-173.648 -97.4612 -341.378)
(-757.712 508.513 904.93)
(166.364 79.7869 -495.513)
(-32.8401 -137.223 778.884)
(801.326 -795.447 936.479)
(-151.934 -1180.76 235.696)
(709.442 513.129 -932.914)
(380.499 134.818 227.246)
(443.29 129.805 -381.54)
(38.2198 -279.235 -755.837)
(-508.26 465.008 648.18)
(-313.071 -694.717 -936.036)
(34.2098 568.672 869.535)
(44.5897 -220.576 24.4841)
(1000.9 28.2422 370.311)
(-680.302 1387.74 609.87)
(-180.195 -131.61 -66.0764)
(-173.968 247.159 353.864)
(443.024 314.89 444.378)
(394.124 -320.877 -232.371)
(504.906 -12.8338 -906.866)
(-296.163 -287.238 -879.942)
(-526.707 -85.71 -23.7387)
(373.483 204.544 -159.814)
(217.174 -749.52 326.32)
(412.174 436.135 7.49319)
(-266.362 -66.5613 -220.581)
(170.881 301.874 282.183)
(276.859 72.9826 85.3436)
(811.831 24.6118 157.492)
(-381.357 -1031.56 93.6452)
(732.702 110.995 -319.83)
(-113.03 469.696 418.469)
(-372.47 -477.246 -103.081)
(110.231 -763.11 443.631)
(40.9741 709.986 -954.044)
(81.0875 346.274 -201.212)
(362.258 381.295 -253.581)
(269.365 588.376 -70.2057)
(1247.82 616.434 -992.833)
(-542.182 -256.675 245.93)
(939.759 237.585 847.092)
(286.328 12.875 396.322)
(180.972 307.461 -293.609)
(-376.549 -189.372 814.804)
(-67.4142 -604.773 -128.219)
(-289.635 435.022 -531.207)
(2.97785 -811.943 -1479.62)
(198.523 146.93 -1138.62)
(331.25 422.654 1030.9)
(172.062 -922.293 -667.374)
(87.2523 655.048 -208.583)
(-342.935 -423.797 -257.157)
(633.256 -387.87 -232.748)
(656.802 21.1319 -298.558)
(1355.59 288.191 -526.669)
(-288.957 198.344 -240.291)
(-206.083 90.2332 -227.217)
(652.359 -74.0379 -160.872)
(-211.988 14.8469 -760.562)
(11.9413 99.4319 -39.649)
(-735.322 447.559 -791.566)
(-584.487 376.126 287.715)
(-96.3711 585.653 -198.531)
(-452.122 735.367 287.6)
(-173.752 -300.188 -370.532)
(690.72 -1033.54 -258.908)
(213.009 -780.709 -60.9684)
(248.091 21.5011 -140.811)
(256.835 9.11138 421.875)
(450.373 659.788 264.823)
(-790.992 747.533 -36.0955)
(-409.481 138.002 102.879)
(261.786 369.936 -15.7756)
(-604.291 631.322 -20.6431)
(-28.4057 103.591 -53.6346)
(66.6188 -144.267 414.058)
(-503.631 -662.967 822.678)
(-391.838 523.527 408.092)
(756.818 -185.469 -431.853)
(-319.891 628.484 81.2188)
(-279.456 94.7396 604.928)
(307.485 -1146.8 -117.933)
(-702.404 -271.882 -292.394)
(808.098 104.012 -96.4887)
(-255.65 613.106 -792.295)
(-552.756 -66.9726 -589.204)
(-1314.82 -568.236 -118.207)
(-231.831 -32.607 -221.898)
(464.053 500.573 -137.465)
(428.915 867.958 515.323)
(-10.5758 -81.9645 314.819)
(267.589 808.112 708.62)
(-294.197 -785.134 133.639)
(-485.303 -321.958 359.386)
(-742.058 689.421 -267.702)
(-82.7938 848.018 339.857)
(191.148 451.363 535.886)
(383.474 -1068.55 724.704)
(29.2108 -329.223 55.8212)
(333.509 -14.5631 121.413)
(-1305.96 -675.541 184.486)
(-58.7842 -819.049 176.443)
(-176.956 -216.728 200.068)
(-309.572 -136.493 -441.904)
(-396.12 -836.909 -420.27)
(421.852 -1039.3 -200.317)
(90.6061 -223.733 -475.85)
(181.992 -108.193 453.638)
(-11.3103 -634.009 -278.04)
(347.867 490.106 1358.61)
(-1102.67 -669.272 -196.889)
(-763.332 -708.181 -267.946)
(1122.35 -157.927 -42.3551)
(487.012 409.731 -791.944)
(-178.739 -704.857 -242.778)
(-2.38247 -112.293 -100.915)
(306.613 -111.262 -292.796)
(375.929 -621.052 559.379)
(708.547 -4.69941 689.106)
(548.983 1460.51 1700.89)
(129.965 -76.0093 -813.857)
(-184.362 408.201 162.145)
(-50.7376 -136.473 -133.835)
(-499.591 -153.228 599.078)
(285.179 750.196 -65.3647)
(-1.75947 -431.782 -67.1835)
(19.4393 -174.016 -125.384)
(139.846 -33.0425 108.516)
(-799.224 266.327 1704.36)
(-577.659 603.011 210.46)
(-1209.04 -232.362 -176.608)
(-589.5 394.721 976.24)
(-876.21 535.34 -360.435)
(488.028 581.552 -223.193)
(-193.004 319.415 78.1728)
(686.213 -10.3179 928.178)
(771.526 25.836 -524.539)
(16.2824 -1212.59 -1004.8)
(817.236 -346.995 1150.38)
(-64.1022 1134.82 309.791)
(-109.556 -468.532 -295.366)
(473.644 381.792 651.843)
(462.849 -668.289 -926.002)
(382.616 -427.11 -373.203)
(156.628 -552.765 -436.341)
(218.96 757.012 -766.447)
(-103.004 813.594 6.079)
(-152.279 -1025.65 298.328)
(-541.122 575.414 379.414)
(-124.124 -1211.47 -286.709)
(-238.198 -16.2959 72.9533)
(246.538 -1171.66 -792.351)
(-423.836 219.249 1250.15)
(158.043 6.57929 90.1184)
(573.942 87.2881 307.307)
(-384.487 -248.307 -85.7407)
(239.723 553.012 -318.901)
(-1209.9 -892.736 -14.5969)
(1070.95 600.273 -176.374)
(211.269 137.993 85.693)
(259.176 -42.36 439.024)
(-730.543 587.198 274.579)
(598.973 -63.8723 -325.512)
(252.129 -680.032 -1066.95)
(590.977 -432.004 -452.985)
(-742.148 -631.239 -501.873)
(-156.881 -787.977 122.622)
(-469.33 193.724 -382.645)
(1102.62 596.977 534.716)
(-476.932 2.29878 164.129)
(-746.238 195.736 -307.731)
(517.868 -378.531 -322.479)
(151.823 168.462 -569.967)
(-1191.12 228.068 558.262)
(-367.107 -155.99 199.116)
(300.751 227.768 -908.569)
(337.441 338.098 225.295)
(-390.354 471.402 1079.58)
(109.849 633.652 71.2418)
(497.753 583.085 790.37)
(472.984 -123.14 -134.264)
(52.5293 -325.985 -752.539)
(460.81 62.9245 172.535)
(-89.8008 -59.5269 -228.593)
(-80.1994 -221.258 766.694)
(-477.385 857.196 478.268)
(116.013 -730.606 547.378)
(-267.8 -449.792 -137.941)
(186.76 489.904 133.824)
(-1068.53 -361.639 -551.032)
(-897.386 -824.634 203.825)
(-111.674 -197.277 334.319)
(331.505 282.459 628.952)
(347.051 151.293 -372.622)
(997.682 1036.94 326.828)
(-356.504 66.0533 -1082.75)
(-195.826 -358.732 713.996)
(853.903 1138.53 -480.705)
(-246.423 215.932 -266.059)
(272.574 1230.86 -89.7218)
(149.029 222.883 624.078)
(466.511 245.18 -128.983)
(-275.476 -321.223 48.3397)
(160.817 -56.9084 596.713)
(532.446 451.199 154.806)
(83.3549 26.6924 -136.841)
(588.866 -235.695 752.383)
(-437.538 68.3398 397.221)
(-699.975 522.158 -86.7993)
(-643.605 -79.573 338.01)
(226.746 154.534 378.11)
(652.255 721.461 74.6607)
(-177.723 -263.664 177.491)
(-1463.96 800.585 856.087)
(256.146 331.621 -650.603)
(271.524 -50.4297 -416.543)
(613.87 -481.066 -379.443)
(-972.084 -1333.68 253.799)
(-564.406 -46.1852 139.842)
(-431.473 -853.777 -317.286)
(-274.722 697.837 -290.577)
(532.847 70.2929 -125.952)
(-846.42 -1123.14 -74.7208)
(32.961 -34.5426 -474.206)
(995.587 58.7219 -147.486)
(-167.654 -388.163 1123.1)
(-968.783 427.31 -137.698)
(117.597 -44.6324 49.4453)
(-672.273 191.287 -148.054)
(86.0938 52.0861 71.2021)
(-319.599 -1337.67 -130.422)
(332.464 281.146 -350.94)
(1159.89 367.286 -427.496)
(-460.843 44.3837 -380.851)
(-783.838 -563.476 -298.322)
(-223.053 243.619 -876.237)
(33.4812 -291.741 100.224)
(-173.463 67.8237 1104.22)
(-382.524 -478.609 -186.408)
(313.197 800.866 55.8728)
(859.821 -44.06 -394.582)
(48.3141 17.2676 107.088)
(700.677 290.986 -419.303)
(182.891 -456.868 -261.689)
(-343.8 381.116 -99.2413)
(-432.639 -538.664 -704.154)
(470.618 59.3712 -292.634)
(-459.934 938.167 158.948)
(300.944 1022.21 -175.038)
(-603.62 -1147.66 525.271)
(-177.511 -557.492 247.406)
(171.797 -195.51 606.129)
(-301.336 178.21 83.8137)
(-501.318 449.417 -303.317)
(153.501 360.966 -3.50828)
(253.392 255.707 -642.165)
(-432.389 -70.6148 -476.267)
(428.064 -259.017 -469.439)
(-427.513 -450.406 493.791)
(-220.476 -463.577 -196.528)
(20.9562 773.16 -217.745)
(-397.313 170.594 210.45)
(402.578 228.05 -213.211)
(123.705 88.4469 458.628)
(-591.19 762.264 4.19916)
(-44.7002 183.796 462.325)
(281.36 357.193 -43.1476)
(101.61 -483.207 -698.385)
(436.637 -406.094 206.288)
(495.251 393.58 -85.7583)
(-612.852 540.589 321.155)
(201.38 -112.544 -387.645)
(591.01 -208.12 622.179)
(165.494 -676.348 638.342)
(240.67 659.794 285.171)
(-161.079 -170.617 -485.247)
(-148.106 83.6732 -83.3091)
(598.988 -704.704 647.787)
(95.9859 348.086 332.437)
(-36.8367 -630.192 -364.537)
(250.605 287.234 958.183)
(1104.98 586.232 -504.83)
(657.728 507.06 466.335)
(-132.77 -467.022 -445.119)
(-331.772 615.692 118.014)
(1004.36 -1097.68 978.805)
(63.5427 -220.946 344.58)
(-26.3431 1623.3 -41.4388)
(-1428.36 602.884 -350.384)
(339.748 -223.912 -224.11)
(-34.9542 -717.767 211.442)
(-448.414 239.211 -593.015)
(83.9065 192.061 143.727)
(302.994 492.153 564.331)
(-317.251 -514.508 -66.2409)
(-189.611 -206.521 -42.9153)
(-296.914 17.2186 -412.587)
(-202.178 62.5257 -44.8379)
(-611.215 670.082 -80.377)
(-216.079 55.191 -250.968)
(-629.686 -877.534 602.306)
(44.222 -87.2337 -310.57)
(-524.687 -614.773 300.89)
(1114.64 -40.8245 -93.1831)
(225.378 -321.043 157.201)
(326.911 -82.0767 336.451)
(-673.301 -506.951 -38.5798)
(209.338 475.596 968.649)
(-16.1895 535.641 -438.987)
(-559.197 288.58 -215.94)
(129.215 -910.192 31.917)
(34.099 -333.942 354.509)
(-437.059 67.9579 -16.5974)
(-261.357 581.753 -530.365)
(-186.435 -438.791 1307.38)
(774.142 -474.865 894.414)
(-378.817 -539.009 369.357)
(-372.523 -491.936 1524.75)
(127.241 -159.908 -458.542)
(919.048 727.79 249.096)
(191.694 -1067.1 -486.801)
(274.807 -687.234 606.269)
(3.94197 -318.56 -177.727)
(439.705 -367.013 981.36)
(-38.474 -632.722 -32.7436)
(-292.651 142.841 -557.862)
(-198.005 249.355 -404.923)
(697.389 1386.07 -325.918)
(1105.44 162.728 485.864)
(-190.308 46.6596 413.609)
(289.36 -352.919 530.327)
(-478.119 -289.561 622.277)
(416.543 628.985 -163.923)
(-178.774 -901.11 -58.654)
(-740.745 512.573 968.89)
(-574.82 -137.607 419.928)
(109.946 -55.7263 -116.157)
(-632.997 -650.613 -421.632)
(-1316.97 -535.672 -415.606)
(-427.703 188.046 -361.411)
(413.677 1101.87 178.152)
(-618.25 151.308 -342.323)
(-191.341 -11.3858 -69.4846)
(-493.855 302.72 -147.992)
(381.267 75.1694 645.253)
(388.975 183.115 -401.88)
(-44.085 -436.901 965.331)
(-739.566 5.24344 1189.98)
(-748.077 154.48 -175.379)
(-67.0383 244.4 61.915)
(51.7999 66.8864 859.316)
(-148.434 500.942 -1144.12)
(315.597 26.9638 -0.493741)
(668.622 -136.937 717.339)
(-445.243 249.805 -972.367)
(-984.198 693.589 -592.556)
(337.204 -1292.16 98.0292)
(107.632 530.85 420.847)
(795.421 -100.799 -257.254)
(-896.657 80.0787 178.965)
(275.733 102.884 265.792)
(142.448 -294.887 -1095.65)
(-401.176 -412.956 737.613)
(339.566 151.95 22.0378)
(433.958 78.7075 116.891)
(678.89 141.597 -76.7357)
(-323.379 -225.931 327.972)
(-649.03 932.586 -121.182)
(-107.387 -938.43 -464.675)
(189.417 -237.249 -413.194)
(-796.283 178.982 102.945)
(871.814 -988.354 -437.333)
(-130.781 -417.821 659.353)
(-289.169 -255.038 51.0457)
(-1009.2 428.61 -768.238)
(365.803 286.393 -616.949)
(-123.626 -606.955 -140.832)
(-37.8383 -227.039 -842.192)
(-265.444 -738.291 432.185)
(-14.3428 537.319 237.272)
(790.716 -773.993 6.98034)
(-197.174 -387.967 -651.591)
(-387.175 615.45 97.9285)
(462.273 440.552 -665.289)
(-558.164 -332.618 731.834)
(787.334 -277.749 1060.69)
(335.344 69.545 -339.282)
(848.251 96.3194 426.334)
(-235.595 -105.162 141.038)
(366.224 -753.509 327.53)
(740.816 -699.051 -40.3208)
(-52.1137 -682.304 591.247)
(291.025 155.033 233.028)
(36.5186 246.262 -44.7103)
(347.096 -714.809 -465.685)
(389.097 530.032 -252.235)
(-54.0438 329.143 -590.565)
(-1057.79 -421.346 -163.801)
(834.262 -249.163 771.466)
(-768.932 -61.9528 444.653)
(405.764 -425.898 -69.2702)
(2.02399 -506.431 -417.478)
(431.52 454.046 -1084.52)
(23.8522 -374.465 -261.088)
(-446.541 -6.81203 -385.662)
(-25.6484 -16.8366 -915.898)
(-263.548 59.5543 518.395)
(33.9599 -628.663 -434.168)
(-490.143 74.5051 238.307)
(-410.656 337.78 -96.7275)
(608.065 -49.1808 -140.513)
(-276.677 481.856 660.355)