/*--------------------------------*- C++ -*----------------------------------*\
  =========                 |
  \\      /  F ield         | OpenFOAM: The Open Source CFD Toolbox
   \\    /   O peration     | Website:  https://openfoam.org
    \\  /    A nd           | Version:  7
     \\/     M anipulation  |
\*---------------------------------------------------------------------------*/
FoamFile
{
    version     2.0;
    format      ascii;
    class       scalarField;
    location    "0/lagrangian/dsmc";
    object      Ei;
}
// * * * * * * * * * * * * * * * * * * * * * * * * * * * * * * * * * * * * * //


63842
(
4.14556892919086e-22
8.82650796113221e-22
1.94014029911022e-21
3.92280209030742e-22
6.66392028451705e-21
1.26898083218661e-20
5.89570508544592e-22
1.72615142338605e-21
7.57549722388858e-22
3.91092436340802e-21
3.4780169823278e-21
3.10536721145439e-21
1.00872612524688e-20
8.38888108338475e-21
2.32059843813729e-21
2.32080840263562e-21
5.89250822074364e-21
8.12712197750726e-22
2.47398587249869e-21
6.27167378888722e-22
1.0017274345482e-20
2.31300397001326e-21
5.24411707408077e-21
2.1634411654665e-22
2.12466751674659e-20
4.02113446133142e-21
2.93755251272851e-23
3.77772944411133e-21
1.41958380439908e-21
8.72634685361738e-22
6.00447463903928e-22
1.0129242954564e-21
1.85324176945776e-21
1.32177401448442e-20
1.07567831589133e-20
2.71259191942119e-21
1.76195066989219e-21
9.15271023352011e-22
4.1080990561063e-23
3.49899992515819e-21
2.81524194912183e-23
1.54001781084965e-21
3.43359306705734e-21
3.54586328955384e-21
2.79157163418618e-21
7.97252241494228e-22
2.17058499189044e-21
5.9223755543557e-22
1.36632189182237e-21
1.02432254072459e-21
1.60874684089835e-20
7.5870560487554e-21
4.24950552670445e-21
3.76720709917227e-21
1.21186319249183e-21
6.09058341597319e-22
3.88610350857298e-21
6.29222187629537e-21
9.56801154137082e-22
7.87390879493682e-23
6.85551592161945e-22
1.10679463503484e-21
2.63876276221284e-21
4.59055850948112e-22
5.51013732638975e-21
6.43139054327678e-21
1.71825945561394e-21
1.9816845717836e-22
1.39375035738229e-21
1.58687717528749e-21
1.58467874823159e-20
3.80253575050247e-21
3.92686085765175e-21
4.30083081477681e-21
2.04038850362114e-21
9.86261823615327e-21
5.12380683753919e-22
4.61843514129554e-21
4.51703927936769e-21
8.16959586310643e-21
4.09730571018735e-21
1.46447055951726e-22
2.5261516663001e-21
7.7588148612076e-23
8.00793230303874e-21
2.57609438400364e-21
2.14325428194347e-21
5.85236156510173e-21
5.85606914543991e-22
1.41182178268935e-21
4.88067702690842e-21
4.37583812027651e-23
3.59983489811454e-21
9.38870967780851e-21
7.08902990047587e-21
2.96562124156331e-21
1.01400759705887e-21
7.12641394345361e-21
8.00558035757754e-23
8.1172500159897e-21
2.5595770603911e-21
3.14046935096094e-20
1.46053404523117e-20
4.92760950537341e-21
1.67837111144543e-21
6.43574873079503e-22
1.09084913918263e-20
3.17401743315113e-21
4.40634033657371e-21
2.92769058002727e-21
1.02812904402872e-21
1.76002475908128e-21
3.94904280504748e-22
1.45644386773792e-22
9.94630207743614e-21
3.65884266096459e-21
8.62191688571748e-23
6.98073605396543e-21
2.26671160866694e-21
1.68213940364672e-21
6.51377306861839e-21
9.81536720465984e-22
3.75235694756633e-22
3.46947340980025e-21
3.89948435539995e-21
9.38868777592321e-21
4.33048421545175e-22
1.22576401063231e-22
1.63771030953052e-22
4.76467184823515e-21
1.9867259741018e-20
6.0371885938397e-21
3.41223603568804e-21
1.35137070885467e-21
1.97119613977039e-21
2.80996672102688e-21
1.10677222977545e-20
8.98620684070503e-21
7.91905911546516e-21
9.50091204114682e-21
6.68542714411048e-22
8.02245965083332e-22
7.88355685458664e-22
5.07606557325411e-22
1.7306268917451e-21
1.95172935922396e-20
1.67827400352367e-21
1.04057281671455e-20
5.73084841329368e-21
1.72420290920243e-22
5.5472055714648e-21
5.46927071457249e-21
2.007599020455e-21
9.16803918567476e-22
1.08017924441551e-21
9.16701624795649e-22
5.24203331293294e-21
6.35437745183646e-21
7.97966326617565e-21
1.91136361226426e-21
1.40819225691865e-21
5.26924645741692e-21
4.1459382151721e-21
5.31690409802471e-21
4.18841934144778e-21
2.81237537759626e-21
6.21792648834761e-21
3.38366040019215e-21
7.94127091112911e-21
8.76856113694832e-23
6.95104343180873e-21
3.96612335664665e-22
4.36453574360089e-21
2.71955334066883e-22
5.10594650878845e-21
4.78540223745786e-21
1.31617070526869e-21
5.89900757645658e-21
4.57943031047761e-21
9.58505529759558e-22
1.19533593985153e-21
1.59834316723822e-21
6.0042423477403e-21
4.64478294452228e-21
2.87192598030033e-21
4.05349242380226e-21
6.75512340852294e-21
7.2405570719542e-21
5.28718621768206e-21
3.72761475257586e-21
5.69745747369422e-21
4.98855191213822e-21
5.94553182257444e-21
3.95888010947246e-21
1.5980276521326e-21
6.54107824472082e-21
1.11409855451341e-20
3.41311034155184e-21
3.13554501848528e-22
9.39137731407524e-22
1.16796656558561e-21
9.58689487957013e-21
1.10519129598913e-21
9.30058042681608e-21
5.07839237441218e-21
2.75987725661137e-21
2.44676695170033e-21
7.30588258385122e-21
8.41472381956345e-21
3.89340271753355e-21
1.47281288954993e-21
6.06284578018857e-21
6.04243015615297e-21
6.63413274121206e-21
1.39324829579964e-22
1.69123596002711e-21
2.85946740242976e-21
4.32734071897919e-21
1.76857254578353e-21
2.85396296374678e-21
1.63941539208665e-20
4.87523384378155e-23
3.76468578524529e-22
2.46509311763847e-21
5.31794024381177e-21
2.99686035006508e-21
2.28531904922935e-21
2.98187123761881e-21
5.3941157991082e-22
3.24039296097556e-22
3.31066281877939e-21
6.69807241892009e-21
1.00478242417148e-20
2.17968310586477e-22
6.66058338159527e-23
1.7638702719936e-21
3.60849333837898e-21
1.86661889312229e-21
3.60081468521853e-21
1.66041558467552e-21
4.06182355190405e-21
2.94220389815566e-21
1.07110325141541e-20
2.19626450739899e-21
7.30410826013424e-21
8.5464828265286e-21
2.49206003712854e-20
5.42571052245926e-21
1.26727356850262e-21
7.96167551205801e-21
1.04155791374198e-20
5.26543105183675e-21
5.89342074186662e-22
7.05512579656849e-22
1.99126779091007e-21
9.04873962610849e-21
2.07600329661356e-21
4.61624546664894e-21
2.658878582762e-21
1.58298704810152e-21
4.47395208795852e-21
1.49259827954863e-20
1.37446188995003e-21
4.36119445159063e-21
4.41343238825571e-21
1.97714596330509e-21
1.99705653334633e-21
6.70770110900073e-21
8.92215733053077e-21
3.89483842602863e-21
1.06792790728928e-20
3.33014836482244e-21
1.11207541519286e-21
1.95151061071068e-20
5.962259051078e-22
1.08579905197291e-21
2.62423359214031e-22
6.06838546940766e-23
4.70582569799303e-21
1.56317355311656e-21
2.16926193399244e-21
9.27594211263973e-21
3.25720226544615e-21
1.1312775794496e-21
2.62085670915705e-21
1.87079437885895e-20
4.54327057794352e-21
5.61100205770472e-21
4.8231992478684e-21
6.3099263859172e-22
2.23620791337383e-20
4.6136425057629e-22
2.53506391311453e-21
3.73908115185396e-21
1.75900861895889e-23
2.21965771554619e-21
1.07572952618481e-21
3.32623504125847e-21
5.12734914833447e-21
1.30770572839015e-20
4.58127780372109e-21
2.59972464105807e-21
1.01103308839757e-20
6.37000838071182e-21
7.76095408112298e-21
3.1285520785313e-21
5.61471393061342e-21
7.60530795958128e-21
1.24587277935579e-25
1.34440923275831e-21
3.08781113873236e-21
1.69026534242295e-22
1.71643069525221e-21
6.61445345712935e-21
9.66800977227793e-22
1.85610657532714e-21
7.20091027664756e-21
3.24063726721342e-21
4.34732002517428e-21
7.23328102160065e-21
2.54250656037588e-21
5.27970415412526e-21
1.17259345547298e-21
2.62239086962419e-21
3.33047225788831e-21
3.55138779626346e-21
4.15974274522392e-22
5.45281964301305e-22
1.52153700542982e-21
1.17983044437407e-20
5.49700771746178e-22
2.27744537016966e-20
2.15071657135616e-21
1.22898721159816e-20
6.2526226011296e-21
8.71896151300456e-22
2.33557250661336e-21
5.30784839817564e-21
2.84232445379544e-21
2.88377423501e-22
8.74601431970525e-22
2.83093869125057e-21
1.49030974477744e-20
9.89561382461011e-22
2.53704308498825e-21
3.50736721100201e-21
1.64711611006207e-21
2.79199900291816e-21
3.08922771505653e-21
2.920552277475e-21
4.33667428246558e-21
1.42468197122762e-21
6.42441023880735e-21
8.61146285336048e-21
2.10393974518909e-22
3.56163904756093e-21
1.03616000140867e-21
2.12717629651403e-21
1.55873577071098e-20
1.35064394183545e-21
6.46270926379681e-21
2.46133779768196e-21
1.21921854448855e-21
1.95440757134373e-21
2.80722203704052e-22
1.72084095162924e-23
2.57713545211163e-22
5.78090782632495e-22
2.59222047695116e-21
1.47320721244075e-21
6.09500211797265e-21
7.36092297224757e-21
2.9809654955162e-21
5.95900547060182e-21
6.67587279034606e-22
2.29595882153578e-22
9.78959369998149e-21
1.91424751879381e-22
2.52149441621443e-21
2.98424580731673e-21
1.06818780347166e-20
1.41696968546941e-21
6.93659083502239e-21
5.51604075131737e-21
2.04532493579967e-21
3.46433736184947e-21
1.26766426228203e-21
3.48531496509815e-21
4.05234431834972e-21
1.16037903001046e-20
2.64287037280667e-21
3.23708855499393e-21
4.14838489593039e-21
1.9694813880548e-22
1.20090609227872e-22
1.75878555397404e-21
2.00623981656771e-21
2.46328979094726e-21
2.79446011105079e-21
1.34061431673227e-20
1.00434101177864e-20
1.3251002945656e-21
2.00426481580941e-21
2.88022228593786e-21
3.2499646725691e-21
1.02644826747776e-21
1.96860289616017e-23
2.77931139462944e-21
5.32718929164319e-21
3.39349274578812e-21
2.79127906219918e-21
2.15582918180243e-20
5.82998816569527e-21
8.14005874001917e-21
2.34294515567428e-21
7.15736997059683e-21
1.3040529057596e-20
5.05533266620102e-22
2.06020182647883e-22
1.80966746778045e-21
5.29687740092847e-21
1.04278221409053e-20
7.54137740748186e-21
1.20081470306628e-20
9.80697685481842e-21
6.62749600938868e-21
8.83718698531239e-21
4.00334994801177e-22
2.52877804103986e-21
9.74844867496151e-21
6.60115972175596e-21
8.09917096812747e-21
1.24330350779353e-21
9.58314417382443e-22
8.57945837764417e-21
1.6696903967634e-21
4.68042091026205e-21
6.05475439689594e-22
1.04260075733906e-21
2.95026096137155e-21
1.36143861519531e-21
3.62528942728611e-21
6.52594312261202e-21
2.07853039905991e-21
1.51384652774968e-22
9.59367113231782e-21
7.83825644131223e-21
6.03232275644191e-21
2.06194887440358e-21
4.03172506808527e-21
1.74540939042815e-20
1.45631321883659e-21
3.65501293399555e-21
1.05647417130818e-20
6.65301545086168e-22
2.25475941078316e-21
2.77802503285805e-22
2.96832509662212e-22
2.88528196994883e-22
4.11176268326407e-21
4.95006813662429e-21
1.27424624929165e-21
5.25531697495691e-21
3.17774947137078e-21
7.88780203520147e-22
6.34682722758731e-21
8.4903618531585e-22
1.55848632671783e-21
5.65273200315226e-21
2.76941073752191e-21
2.91290734963349e-21
4.20357445790153e-23
7.11810638049803e-21
1.06066957915418e-21
1.76435807550261e-20
2.58629762151263e-21
1.16191821347324e-20
8.18704272635904e-22
1.63661102366256e-22
2.00158083052914e-21
1.78852466716593e-20
1.56355290549263e-22
2.19628424857696e-21
3.64749013672125e-21
5.14949964427955e-21
5.10256062815128e-21
1.77523910426465e-21
9.60598875860937e-21
6.55381140435096e-21
8.11904913589097e-21
2.05013479830829e-21
1.82025206526288e-20
1.90312708022656e-20
2.3266657905257e-21
7.40031304685946e-21
2.10911949901191e-21
7.43407924124673e-21
1.60078340023668e-21
8.42561470133007e-22
8.25117101946666e-21
6.66771494755592e-23
3.62730905534466e-21
3.19035589106951e-21
3.65559760326678e-21
2.23860551846821e-21
1.97647161187516e-21
8.2235312949692e-21
3.24421873989915e-21
2.36265344749934e-21
4.67103173388384e-21
6.61768759310132e-21
7.77289556223076e-22
1.10116905880326e-21
5.14558939299905e-21
1.36508167718772e-21
5.33763493459775e-21
3.85473868208215e-21
6.26305030153961e-22
2.23003326982387e-21
4.29273550267396e-21
1.79322782635419e-20
6.49818850251453e-22
7.6020337825824e-21
4.8299965176251e-21
8.11310627490484e-22
2.9992633972955e-21
1.1780773425256e-21
1.92581401083767e-21
1.52353477361449e-21
3.60095776079543e-22
2.39066780380111e-21
1.83905602121406e-21
2.52572304424027e-21
7.73948623287246e-23
3.73828487049806e-22
5.92599169233796e-22
1.91963170550148e-21
1.49488995203822e-22
1.17331200350725e-20
1.45888355764681e-21
3.4323453897947e-22
8.23148989817598e-22
8.13531670906956e-21
1.65367001467792e-21
4.87895762304268e-21
2.11799260132413e-21
2.1729363343199e-21
2.93937317410348e-21
6.10208751375567e-21
1.29788324486602e-21
7.21173649768535e-22
3.23891468062388e-21
4.47303741344339e-21
1.27203537340989e-21
4.61737213469956e-21
1.13965439626274e-21
5.54583430932508e-21
8.81201865466332e-22
5.06637546473141e-22
1.28846525627459e-21
8.2099756813161e-22
7.14086787452133e-21
6.26670393040018e-21
5.65699821036934e-21
5.14595065911429e-21
2.17877761356812e-22
9.36843775065734e-21
2.64216009564171e-21
7.12047943700027e-21
1.33660824352245e-21
1.33110150153929e-21
1.17468520140564e-21
4.77507624821045e-21
3.09565026150135e-21
1.23265016530618e-21
6.60503631617249e-21
4.01305366926014e-21
2.52259288969151e-21
1.70588718016662e-22
2.58295972766315e-22
8.14034539599153e-21
2.14612854357807e-20
1.49066908112053e-20
3.13761911600448e-21
2.83331004115285e-21
1.71304942505644e-22
1.16407821790202e-20
1.03685544826694e-20
2.21101636136603e-21
8.36905944293474e-22
4.73562066749047e-21
1.30326876963042e-20
1.85205864582829e-21
1.2390925973563e-21
9.80652452450791e-22
1.07419627280266e-20
5.21084895871616e-21
1.32182495774552e-20
9.4594214473339e-22
4.44570371030449e-21
8.42230457354959e-21
1.05481479667963e-21
1.12559326944757e-22
2.10847515924193e-21
8.59672783070152e-21
6.75842872720753e-21
3.20516479500935e-21
5.46220716301098e-22
1.23377098052761e-21
1.84786322819503e-21
1.6852090493048e-21
9.45242884002566e-21
3.51876673598201e-21
3.26135231242537e-21
1.91156236031095e-21
2.21931867361173e-21
3.1142137203685e-21
7.03368902072385e-21
5.97105970230672e-21
4.32623366654984e-21
4.6095231001249e-21
3.66837304269098e-21
1.52929802740562e-20
7.95333892725835e-21
1.15745691667875e-20
1.99394765277429e-21
1.23751205027822e-20
5.70517584870039e-23
2.2572521614428e-21
5.67406528361879e-21
2.23276375232611e-21
1.46640432316138e-21
7.27068557170457e-21
3.20752470975184e-22
1.55898327945551e-21
2.8465647083756e-21
3.49345068483294e-21
3.32752178479292e-21
3.32229616222544e-22
2.13483254103373e-21
2.53422744940382e-21
4.76232328064626e-21
5.64705167465721e-21
8.10328535863551e-22
5.42800784808059e-21
4.4576019214515e-21
5.24395529567372e-21
8.32324779712926e-22
1.19321647369286e-21
2.16496683066082e-21
2.93807994717427e-21
1.98917720338264e-20
1.46033831565848e-20
5.29488968153602e-21
3.18054419156752e-21
1.0742087028185e-20
1.86284611697424e-20
1.10355624627615e-21
2.3035152608692e-21
6.65574749452102e-21
3.6871979357995e-21
5.23376890377487e-23
6.3173837210997e-21
2.31217351917821e-21
7.56934746952494e-22
4.0956666223558e-21
2.07137091092548e-21
8.29114627783437e-21
1.27764616045452e-21
6.5336446728443e-22
3.67480026249949e-22
2.42365623761299e-21
8.7085289125293e-22
8.63163373631447e-21
5.80989622202027e-22
1.21647991446666e-21
7.52232349603592e-21
3.23649551787303e-21
9.39618246536487e-21
5.6702271410193e-22
1.00099311545629e-21
6.83475647744004e-22
7.48972771039643e-22
1.48281432384492e-21
7.65981918359431e-21
3.91774768613401e-22
5.31442620965123e-21
1.39051826214436e-22
2.49958647491617e-21
6.5831308319733e-21
8.34935919825126e-22
2.23981885771965e-21
3.63576913635857e-21
5.57832173087041e-22
4.41942231634132e-22
2.25297647405436e-22
1.46583886966459e-20
1.06484727120061e-21
1.93449948430216e-22
1.13797996129696e-20
9.04427110966754e-22
1.10733855877778e-22
1.3209273600304e-21
6.53572661801714e-21
5.90789647774874e-21
1.23682887953944e-21
4.09046013022755e-21
8.78219216474609e-21
3.99922115592705e-22
5.05701988557783e-22
5.16774315242933e-21
5.81287388553783e-21
2.49442352793093e-22
6.46107847865615e-21
1.34706027227076e-22
7.30161729077987e-22
8.42407091256464e-21
4.67849693960768e-21
2.90732563495299e-21
3.42652688999983e-21
9.68979422239343e-21
8.0936180975644e-21
3.61445967739374e-21
1.98204828278657e-21
1.99052608733229e-21
3.76460020424126e-21
3.03832790044504e-21
9.39277509344466e-24
9.20303546994481e-22
1.22870333547955e-20
2.27085290605288e-20
1.40839765399037e-20
1.35348876610346e-20
9.27155689290667e-21
1.71436257307476e-21
9.81725431520295e-21
3.96810930637175e-21
6.48478038810553e-21
8.22833173172968e-21
4.2765380072191e-22
3.79868628553841e-21
9.34894545351387e-22
3.82044911855091e-21
1.12594383778896e-21
2.84634028167278e-21
5.97464485991238e-21
6.29108819869955e-21
4.04242063700167e-23
4.77932954306564e-21
6.86434148930066e-22
2.96806253176956e-21
1.7490635208691e-21
1.26366679812877e-21
2.27626998494138e-21
2.33929441789145e-21
6.15979341945269e-21
1.55354926368817e-21
5.64627860393433e-21
2.35330318253431e-20
9.1924283042995e-21
2.20503938562342e-21
1.03178285844905e-22
1.75210897068555e-21
2.35429875316354e-21
1.47450485566293e-21
6.46818996994007e-22
3.94962890388465e-21
7.77407549845114e-22
7.15889154890611e-23
2.18937410406165e-21
4.34935205940176e-21
1.17749991063382e-20
2.73947070242407e-23
3.01551758036364e-21
1.62207336809544e-21
7.74402071281792e-21
1.51961664914578e-21
1.51004703519348e-21
4.80161038097418e-21
2.35662390004921e-22
4.17669793911792e-22
4.54043699477025e-21
6.51291289254026e-22
9.89694327326153e-21
1.27143648582035e-20
1.19836276097108e-21
2.81933909050424e-22
1.20567558341543e-22
1.92818086840875e-20
2.90771887302629e-21
1.30283031260755e-20
7.7057272996236e-21
1.00398264861577e-20
4.8329401497291e-21
4.64733105509099e-22
3.69124310065164e-21
1.19898660235099e-21
8.57401116229826e-21
2.01255281607799e-20
4.51572586002794e-21
7.83200636765801e-23
4.36983826318603e-21
3.47594383889738e-21
6.23183452002446e-21
8.01121692391712e-21
8.1056394883747e-22
1.00830511806019e-21
6.72445707690321e-22
1.54972781451617e-21
4.32049139602383e-21
5.46431801671649e-21
1.90607474150609e-21
2.87191905067046e-21
1.68636986621543e-24
9.18529108432021e-21
5.73900671774803e-21
4.41869022967965e-21
2.15751643479085e-21
1.76462363411182e-21
8.41119210229763e-23
1.1817539367952e-21
3.2512068101179e-21
1.92970702743055e-21
5.18620199687616e-21
1.83321835758961e-22
3.23242107762771e-21
5.35274122588754e-21
3.44838577971489e-21
4.33763013624002e-21
6.1315207654624e-22
3.10018989504388e-21
5.30092953939302e-22
2.91729689755914e-22
8.64400090354574e-22
1.63033930586398e-23
2.32681441152032e-21
2.80537168273902e-22
2.94301860262474e-22
1.73583401614195e-21
2.09772253456326e-20
5.00519375177905e-21
3.3941583146848e-21
5.0113282894974e-22
5.6057759451576e-22
4.34183720148645e-21
2.06693832522903e-20
4.08671244525561e-21
3.43705011089729e-21
2.96110787713375e-21
1.91855456080712e-21
4.34075269876352e-21
2.22715288220959e-21
2.01026928567362e-21
9.79811310632112e-21
9.29172433996926e-22
6.87152439590185e-22
6.04973950818966e-21
5.26687130390066e-22
1.40492573654395e-21
6.28292511214562e-21
1.97347096531448e-21
4.41572208293572e-21
6.40059775321666e-21
2.80411122856258e-21
1.79026595581397e-21
1.1473799088508e-21
4.54516663431741e-21
1.40134044141412e-21
2.06042104381507e-20
2.88789707066379e-21
4.52446448126244e-21
7.86408046020722e-21
1.21630164770143e-20
5.38351038583008e-21
5.90048587893213e-22
1.39764076076826e-21
3.95491123457921e-21
1.14835402728693e-21
1.75334185507184e-22
3.48419079864431e-21
3.80207162600219e-22
4.83888627892616e-21
1.43894809553728e-20
1.26500726374924e-21
7.99598057899785e-21
3.62354058605475e-21
2.09089356619654e-22
4.06602674711528e-21
5.31658040913573e-21
1.27599257770158e-20
5.01260435769568e-21
1.19138648528354e-20
4.11493918170669e-22
5.43156326151199e-22
3.28423429792874e-21
4.81880055711241e-21
6.21495352096698e-22
6.98966887004024e-21
2.82720617851216e-21
3.77584153689559e-21
4.22487342384219e-21
5.72936754640443e-21
1.01542982571239e-21
1.19240297741849e-21
4.66724015555789e-22
1.02133656425797e-20
1.84594166039967e-21
5.066349010876e-21
1.3704048849856e-21
8.71398584788879e-22
2.43430194987367e-22
6.51761096177888e-21
2.7310867209543e-21
2.30065318538303e-22
4.4928418925501e-21
9.07335794989322e-21
1.62118378616118e-21
5.77447013104201e-21
7.9144651264235e-21
9.74348786781964e-22
9.54791228784339e-22
5.13475534838362e-21
1.12535596949496e-20
7.58013168479984e-21
1.21191736241239e-20
1.74156622637293e-21
5.15941788564788e-21
3.02217007075275e-21
3.01775200779496e-22
1.80774462093476e-21
8.79082564884657e-21
3.82580845265398e-21
3.23118817061912e-21
3.20713688370708e-21
1.54266372601702e-21
4.97070843006677e-22
8.5643563763553e-22
2.04175914807257e-21
5.50402526873968e-22
4.26857805833486e-21
2.67675918999903e-22
5.62699915185305e-21
1.60006605908948e-20
2.65452068892452e-21
1.68914105347569e-21
9.30522325093657e-22
1.66377451742883e-21
1.04109987420523e-20
1.23294931461219e-21
6.77103116908824e-21
1.45948849266055e-21
1.72751944398929e-20
5.69736765504531e-21
7.85206314753802e-21
1.26463301451137e-21
7.35022110891351e-22
3.42472733590228e-21
5.84029517029029e-22
4.78066190996952e-21
2.78224326225327e-21
5.49712960139332e-21
2.64710702567443e-21
4.15025838687267e-21
1.05402375362644e-20
2.32268283578634e-20
1.07305803239374e-21
5.72304821066772e-22
1.3985887396679e-20
2.9399112292023e-21
6.26062831278915e-21
1.69450089135184e-21
1.57616861412366e-20
1.8042124366972e-21
1.06289378465898e-21
3.36681685720909e-21
8.9626267516757e-22
4.65764416979589e-21
3.61601636527014e-21
5.81289218759008e-21
7.68010644640895e-22
5.77563044659289e-21
1.29867454073666e-21
1.87912962511925e-21
1.09490848845994e-20
2.05453254806339e-21
6.36053075420103e-21
2.38417104333938e-21
1.59917133006549e-20
3.49631633831714e-21
4.49611345905028e-21
5.82394368441443e-21
1.49692660502541e-21
2.25023206898394e-21
3.10924074313957e-22
1.87173446417864e-20
2.79685271289361e-21
6.5432777772651e-23
8.54060515445507e-22
5.29501818136557e-21
5.93632601621345e-21
4.50593328461888e-21
6.68194854650933e-22
4.47488760609899e-21
1.22584677571395e-22
1.89126915456298e-21
3.98889838788478e-21
2.25393814869499e-21
8.35203859313623e-22
1.07560379733898e-20
1.56634599256056e-21
1.96208328278013e-21
2.63439354485195e-21
5.8913884522144e-22
2.84241753027085e-21
5.65436480063916e-21
5.56546547618439e-22
5.53469979014005e-21
6.01829181464567e-21
1.38494776248615e-21
1.82051989808778e-21
4.63362344944241e-21
1.87624628669219e-21
9.11725180043224e-22
3.71424755765792e-21
3.52617040167034e-21
1.32418423565817e-21
5.32358905413361e-21
6.53916042658374e-21
3.43267551570079e-21
7.90356657335109e-21
3.44948225992028e-21
3.21023368691859e-21
2.06117613625809e-21
6.63946687415513e-21
1.85202173606245e-21
3.83048292383874e-21
4.38128612587349e-22
1.34405663569123e-21
2.25568700449817e-21
2.50843926235778e-21
8.42835293720598e-24
6.1073210075455e-21
1.32575306002336e-21
1.04181530926061e-20
1.79004737129621e-21
1.589198353249e-21
4.31902916756307e-22
2.38371276233288e-21
7.02469284312526e-21
1.07820573645788e-22
3.72000511087487e-21
2.58080342347371e-21
4.08010362833236e-21
1.35412651493294e-21
3.54824291185752e-22
1.63136026900435e-21
2.25465215553344e-21
1.72628335354254e-21
3.07285787681971e-21
7.65458265769098e-21
9.33547612054601e-22
1.74724975635196e-21
3.58822223589575e-21
8.43320097181819e-21
5.51552547205061e-21
3.45491387730043e-21
1.58531898511208e-21
1.75619422487625e-21
7.9417266904128e-21
5.23189559585635e-21
8.9760847385027e-22
4.58294057601025e-21
8.23700392593863e-22
9.05115173484111e-22
4.04587216482423e-22
3.43244416953662e-21
4.31577534849126e-22
3.87993333055533e-21
1.92838132408281e-22
4.11134488361759e-21
7.18717837141391e-21
1.78128049321367e-21
5.66184755258073e-21
9.42869200646443e-22
4.46835853631316e-23
3.137420707375e-21
3.04144321724241e-21
1.99141932255889e-21
7.09645404308722e-21
8.21124934724034e-21
9.87802726507782e-22
8.02927615256443e-22
2.18241777542671e-21
6.56073406900456e-22
4.41603553930555e-21
7.16309450819283e-21
5.99964506561155e-21
2.71123055341275e-21
7.75632414363391e-21
1.13476539647607e-20
2.10594045976973e-21
4.0082289409279e-21
3.22594902413176e-21
4.60088579376847e-21
5.37188031707497e-22
2.43631839939033e-21
2.04642874991514e-21
1.0519184894268e-20
6.77489672218934e-21
2.66312660918381e-21
2.17615706258052e-21
1.6687510595478e-21
1.04390659749956e-20
2.82016267220488e-21
9.37756910399482e-21
2.87846012549144e-21
8.93155634672079e-22
2.59316514592929e-22
2.15746110124484e-21
6.25753375510226e-22
8.42307276719577e-21
3.59152109559868e-22
2.82787716272807e-21
1.88059360167402e-21
1.31621771216946e-21
2.19738841301314e-21
1.39344824705807e-21
5.19907652217806e-21
8.20211752130638e-21
1.04166335831752e-21
1.14088331774609e-20
7.80146908496254e-22
1.8559394085522e-22
1.20779631047415e-21
1.23173494014246e-20
2.60275747175836e-21
2.75189801097454e-22
6.19161625916817e-22
2.0600462948083e-23
1.27095328847472e-20
1.68253437866955e-21
9.38330236831975e-21
9.02798031542956e-21
8.73919653146246e-22
1.21387521095295e-21
4.41096945064133e-21
5.45069321940786e-21
4.23705968807222e-21
4.97569104358881e-21
4.04990285456639e-21
1.89744619450399e-22
1.25244879524848e-20
1.09267075047888e-21
8.60574959839409e-21
1.97548353656952e-22
8.16282831656795e-21
3.03486075513015e-21
1.02575579171174e-20
2.52062889273434e-21
6.20972495382605e-21
6.40592446875551e-21
3.80103332590114e-22
8.14158358288469e-21
6.09271280057843e-22
3.07351568333833e-21
5.76048503687114e-21
3.30370004938682e-21
3.76940214223229e-21
1.67171495285544e-21
7.91916336023187e-22
3.81787792071944e-21
1.30551094158629e-20
1.02249407704617e-22
1.25050975213706e-22
3.41216293536136e-21
5.90991979715512e-21
1.06045849771156e-20
3.36594549061935e-21
5.01671349385922e-21
5.45547856759989e-21
2.32484496854429e-21
2.15585552621744e-21
2.3222121997775e-21
1.33178677722487e-22
2.00072431055784e-20
3.55089908708974e-21
6.16217691357571e-21
3.64687914712257e-22
6.45738986729759e-21
1.78725664858587e-21
3.44808595881645e-21
8.07907802635039e-21
5.15537406082167e-21
1.17064218302957e-20
4.996622143533e-21
1.53239769117124e-21
4.85750740324786e-21
1.11233510407013e-20
5.05338663036225e-21
1.72912177796317e-21
3.31621508124408e-21
6.64258264103807e-21
8.56948780751331e-21
4.51480381825457e-22
1.65692817108225e-20
3.78956033486818e-21
1.47628132381585e-20
2.44816483457586e-20
7.54398829239985e-21
1.03545704016364e-21
1.51502887803636e-20
3.71605663369267e-21
1.05049498454462e-22
1.17422864362461e-21
3.83375636884502e-21
1.77278935974971e-21
4.60975944524091e-21
3.73398615618099e-21
7.07942688058636e-21
6.46523941489929e-22
5.0216142748732e-21
2.98970791932494e-22
1.09807585767666e-21
2.02326737506974e-22
1.739534484147e-21
3.6256382936766e-21
4.57121859756421e-22
5.42652799503228e-21
4.38596462831214e-21
1.99273877775834e-21
1.31520353949627e-21
5.80872291641196e-21
5.75133487410456e-22
3.13867468511708e-21
6.53547066645336e-21
3.30130817828725e-21
2.35833810131086e-21
7.16602740698878e-21
5.13880048553325e-21
1.22016794422487e-21
7.99267431219196e-21
6.52928849326606e-21
1.70189470740347e-21
2.16436884481236e-21
9.11804969532377e-21
2.57923365578125e-20
1.95987498224108e-21
2.55996378375975e-22
7.02035569898515e-22
6.03313438520595e-22
3.9922673319566e-21
8.38637864572063e-21
5.02672921833297e-21
1.17166326851172e-21
3.95377088504849e-21
9.96538357520456e-22
6.13435761772639e-22
5.32054899371145e-21
2.35715437648826e-21
4.32282032634682e-21
4.44571991927115e-21
1.48335206656928e-20
2.95224073584271e-21
2.18104621684591e-21
5.32424349093708e-22
4.61517081983555e-22
1.9460227586717e-21
5.57360293259541e-22
1.97201327478764e-21
3.242129804032e-21
1.50798367726179e-21
1.87857625975503e-21
6.91531368617681e-21
5.15922275948828e-21
7.73374745595446e-21
1.42347951585838e-21
4.21923891649787e-21
7.84935508112517e-21
6.20893877791845e-21
1.03940249721651e-21
1.73820677889044e-21
3.44665271633452e-21
3.30908491750873e-21
7.53123097540444e-22
4.49511516009498e-21
3.79276466145044e-22
7.11174118263853e-21
3.85996834866657e-21
6.93210715940518e-21
1.11832966911847e-21
9.76137839891908e-21
8.76622562302679e-21
6.89192968856072e-21
5.89147850921057e-21
1.08849826199173e-21
1.6322121040542e-20
3.05772328043594e-21
6.26840095638283e-21
1.22418321462029e-20
3.1180947635138e-22
2.74107258915131e-21
3.14115875932893e-22
8.08442604666039e-21
1.50733426413807e-20
4.62175843212723e-21
3.4875488901265e-21
8.48481366753575e-21
3.59209799884737e-21
1.42014239308236e-21
8.40577522331108e-21
2.76356830081021e-21
3.30743288728982e-21
7.51742938082314e-22
3.70700273180141e-22
1.19391115736756e-21
3.66110439923e-21
1.8701611344701e-21
5.87529283255275e-21
4.90301810473223e-21
1.32370732787531e-21
1.47559102269412e-21
1.65205746365898e-20
6.94190716056464e-22
6.46257878587508e-22
4.41496540657612e-21
5.23545087684913e-21
1.68374689611125e-20
2.03887879660303e-21
5.80320820828174e-22
2.00610516948308e-21
4.87725239451624e-21
7.16214480595698e-21
1.94169231733545e-21
6.09562768379315e-21
4.93757775064785e-21
9.35657753983212e-22
7.74046400535199e-21
5.30012222566435e-22
1.20667117624167e-20
4.79047966216613e-22
5.93226157132973e-21
2.88742504431448e-22
4.45769191885693e-22
2.00621477667518e-22
2.608907257528e-23
1.70946558673984e-21
3.18702716857202e-21
7.00364545027718e-22
5.0069959080597e-21
1.97121391798987e-21
1.39683586109663e-21
5.092380527733e-22
7.11420759858234e-22
2.97242765391333e-22
4.15503171375901e-21
1.17092416291499e-21
6.14491905992592e-21
1.27997503567839e-21
4.2651948965808e-23
3.43432568168842e-22
7.45486404440969e-21
8.73219411478673e-22
4.86718107258689e-21
4.85540330558896e-21
1.1590742728422e-22
1.56937288417119e-21
1.98160314678888e-21
7.61900001210986e-22
2.04147106986263e-22
6.9923833015263e-22
2.4156570249838e-22
5.05735743309305e-21
3.19242824711417e-21
4.41894675122248e-21
6.83600100158248e-21
9.30568988832485e-21
1.18124073541842e-20
1.41898655980408e-22
2.65219732730091e-21
1.23331305117522e-21
3.50282133479756e-21
1.11307918164743e-20
6.29869732096345e-21
9.16510366815133e-22
2.72897629506949e-21
2.88786477927011e-21
3.00359724847602e-21
2.70582390935349e-21
8.0789579595516e-21
3.71274678511023e-22
6.12866076421458e-21
9.00267727152337e-22
1.14956870707793e-20
4.55198574178049e-21
1.05857044112834e-20
3.48395084550807e-21
2.76870293126577e-21
4.24440022235512e-21
1.48742572550847e-21
4.8595226414216e-21
5.39375591465508e-21
1.74658091375104e-20
3.89020509273678e-21
3.7092629136887e-21
4.02627714455478e-21