/*--------------------------------*- C++ -*----------------------------------*\
  =========                 |
  \\      /  F ield         | OpenFOAM: The Open Source CFD Toolbox
   \\    /   O peration     | Website:  https://openfoam.org
    \\  /    A nd           | Version:  7
     \\/     M anipulation  |
\*---------------------------------------------------------------------------*/
FoamFile
{
    version     2.0;
    format      ascii;
    class       vectorField;
    location    "0/lagrangian/dsmc";
    object      U;
}
// * * * * * * * * * * * * * * * * * * * * * * * * * * * * * * * * * * * * * //


63842
(
(1406.60179509387 -706.977414224119 611.895489884261)
(1582.60772660192 -394.579723513185 958.209898552788)
(997.447911509548 -450.253373642758 1144.21869224057)
(473.024318666228 -700.38067561418 601.317780885189)
(953.776812082624 -819.107040668701 812.265258966467)
(1094.08740732719 -582.403436290029 1235.96521579866)
(1279.29249026232 57.2725686738785 469.127362067173)
(1091.33958339968 -619.149623011005 969.252520268057)
(1674.50976038047 -197.03945054826 892.086529525562)
(1378.40958913693 -371.732872179079 482.692712979355)
(1474.27596353538 -613.398448657734 590.805827264427)
(1500.54413305985 -335.311521040247 1091.84950068422)
(1360.37011609116 -86.7291201904482 634.364638612214)
(1024.92069770606 -755.574897821345 805.985125994226)
(1174.55049987761 -421.891897461269 1040.52573185394)
(1461.97868729293 -487.417759747778 416.728502898453)
(1112.23984044524 -212.142737859246 661.538321209014)
(1370.5183534174 62.5205186662719 234.787408939515)
(1456.12143379155 -245.578155073369 970.899226785766)
(1158.94595120433 -44.7181341159867 613.08678535285)
(1684.17569220978 426.796807259259 536.916007345596)
(1812.88877384018 -225.256385498102 348.973345885469)
(1146.63628794563 -536.88255278885 485.561844910739)
(1347.44992117383 -256.411019027713 678.716081579544)
(1197.72585257921 -567.48133294923 857.493867947027)
(1434.40657151795 -227.2035340675 665.762925509711)
(1655.52720360609 -512.340904153548 648.463879587743)
(692.093291777618 110.381496536671 1235.65716053648)
(1148.80868393987 -223.048914693603 915.794181506402)
(862.350570966608 -343.779807271724 1152.93150467814)
(1458.61931962507 -348.355991498198 1146.09319900715)
(1396.43961197717 -475.059957870814 762.396141980484)
(1313.13237180573 -601.826603157372 589.78102585806)
(1747.74733751883 -823.148575930958 618.497181678236)
(1691.48228429513 -264.878726891724 799.14177882392)
(1771.39885011308 -583.016181409181 790.419609831508)
(1590.69470463482 112.27397211738 947.782532583634)
(1046.0081279229 83.2627690980032 411.151253274897)
(1442.37396597975 -154.21661615599 744.986167153445)
(1012.61817662502 -757.39910277158 1099.27982321602)
(1628.1895487787 -401.629509644907 706.287627834506)
(1212.68527571723 -277.606030026541 1038.39680187311)
(1316.84698190128 -541.958846492539 629.151069242616)
(1035.38338296178 -315.219288261843 777.554217136069)
(1379.29527810958 -235.079610375055 635.58466430676)
(1134.34038170331 -670.909653194095 1242.76650225727)
(1340.6576290523 -73.7064262125043 379.980757163909)
(1219.80289661238 -589.205856220301 583.095591085706)
(1362.63699080046 -302.572461336556 1148.1270611204)
(2168.87675821986 205.818967406911 878.880611844729)
(1293.86992007292 -476.613519156364 872.511608122524)
(1482.74131481319 154.904719350539 882.104912371561)
(1385.73629396888 -507.330465455444 669.406683818951)
(1144.08979386367 89.4148231806161 614.225576565985)
(1170.75909429203 31.3600965858269 1120.06328490027)
(1434.48573411916 -485.066266947621 532.407899650504)
(1795.76089047866 -863.927991117171 801.820854063797)
(1141.82293134058 -496.790571353776 896.981270890945)
(1067.28880408327 -362.461909429928 547.230095550211)
(1377.74363687959 150.488808670436 1258.1458875649)
(1588.17806362333 -180.966896495747 456.488054676142)
(1340.36584665172 238.087736132758 749.383955673106)
(1121.25548927596 -132.083983545153 510.884246284343)
(1152.68941001843 -463.081534676124 924.017088168926)
(1706.55734587768 90.7546163785782 802.840669829141)
(1646.54853199697 -476.371767924249 733.804289489499)
(1397.94338998644 -434.529949806801 761.168155126402)
(1471.20050807713 -221.245174821805 424.428235516291)
(919.794433519947 -88.0726278582756 510.002684886887)
(1034.48514601962 -476.114025839712 782.796963821562)
(1668.53827209987 -482.51791645332 1211.21212615765)
(1503.27627894958 -1015.58199682307 758.159502309688)
(1305.16664817511 121.427014619881 1334.77906371121)
(1176.22917320212 -643.839942851704 668.830564753372)
(1367.73504376953 -3.14950042791605 1244.81274572705)
(1348.82931986459 -592.239498365184 1143.99941883644)
(1676.18812496754 -561.955076818175 856.555302194945)
(1223.63668086648 -340.019834949476 532.653040926438)
(1257.48480824349 -410.103187613122 1345.58043202706)
(1078.68936145774 -464.863142170509 830.315584384937)
(1349.79282939939 -91.6836747057019 384.568101455042)
(1126.36133214249 -254.697843203007 815.215940280104)
(1466.82954963925 -817.55573292873 627.868536986266)
(1836.77264468037 -330.755927284561 393.604840711033)
(1442.09787481116 89.3632107111865 563.984162117829)
(1082.16268566697 -611.744245604136 368.530332848419)
(737.060107886562 -395.716013733698 522.380382653961)
(1147.79903710495 -322.731510305452 1028.06229440193)
(1466.83388817376 -52.902021322537 164.032446901739)
(1417.37953774451 -129.474583401807 1063.08992630027)
(883.988652093508 -118.360179228144 431.954506198345)
(1136.60937010697 -267.599226018228 1107.0048373229)
(1206.27386431423 -525.342480010625 475.21408420628)
(964.832880967883 270.280204673186 1028.66631786142)
(1325.68087289953 -167.987814031326 719.76629427719)
(1238.2548025758 -751.042976221516 614.11795713555)
(1207.40473597995 -636.972102506697 1001.83219705808)
(854.568816000987 -664.679944372483 1261.59871297345)
(587.577044723431 255.611154249805 1120.58059972467)
(1972.8043932411 -774.715431364294 640.841617471134)
(1419.08793001704 -249.786864352007 940.562371923492)
(1722.61128811046 -797.606769394976 1309.30728565074)
(917.641313433333 -602.510884533531 364.071951916057)
(1611.51515881478 -393.420603572534 729.019813050794)
(1214.6622063239 -555.074162169079 678.339615999424)
(1468.61704745067 93.4064124979811 816.884707968203)
(877.335789250515 -86.5309353691301 745.258781849451)
(1204.59633139461 -307.771204425423 960.627837400044)
(1352.95997357626 -634.42568575629 670.971457384315)
(906.002148048112 -400.174744760028 712.644722475349)
(1178.49572539499 -178.833080829905 1120.99627553536)
(2051.03745080428 -137.508375981497 1187.22295281445)
(2088.95124356395 -598.953922763806 1257.88039713815)
(1470.05823847854 52.8267925733572 801.472450289049)
(883.434876206657 -93.2771673963155 612.931729085674)
(1507.64251356322 -440.914782373125 1388.99957302924)
(1313.62371012223 13.1968167806221 740.390788214105)
(1209.76317654226 -67.6214975458121 798.384684695276)
(1396.80173573924 -380.561621229698 736.925029229195)
(1431.10263670053 -42.9041462507889 1284.88014547736)
(1426.95357522683 -208.950344087774 843.559715618984)
(1496.66800419375 -250.381973888296 1194.66465355508)
(1583.03241125395 -61.6261348639699 616.269178753834)
(1759.80820504193 -179.169842556616 1318.29135715347)
(1395.84336338977 220.299153993091 551.943276487188)
(1428.08054290174 -40.5208542827759 709.224230315796)
(1090.16770818479 -115.148626128479 1384.1203574864)
(1172.91092454361 -836.691471444546 1057.89897929534)
(1848.31014889927 -322.934169549533 754.973254222074)
(1094.73404891819 -141.400952540693 738.378494833255)
(1223.89451368984 -452.99755442809 212.417003499635)
(1280.32743100136 -66.6339308660402 731.313325419679)
(1332.26201286172 -34.6016250463936 880.59065751041)
(1203.87041335439 102.151837707064 798.840528878748)
(1210.51529491433 -496.637367695946 615.333943351091)
(1363.36838890766 -357.284971610827 446.058672699416)
(1326.28255405558 -288.068578814087 918.477716440296)
(1461.05409905293 -409.296479817541 1003.30837495043)
(1417.85133601086 81.1348324279211 729.823028385582)
(1574.1947675382 -317.780648215472 1718.90124051966)
(1180.90649125425 -509.111299145559 761.248809709127)
(1238.79884081885 -175.779288710242 645.414404933672)
(1129.78743698539 -557.90499313886 1016.07308761767)
(1561.44227508633 -140.853192462367 606.894138409101)
(1170.0552224681 -232.488403416567 849.571333688638)
(1177.13161142459 -554.834275065985 841.326312966968)
(1031.95608199236 -91.3439539137188 1221.58101073117)
(922.944715339327 -155.615273494921 819.982832150391)
(1825.25183871607 -422.350148288772 998.41679773801)
(1729.73173160832 -546.418068714901 748.285990430696)
(1001.3796535088 -552.643158781487 990.695090763739)
(1558.26017702265 -471.728560446453 865.452663621023)
(1421.42006246983 -681.184935004983 1316.93160349826)
(2027.30479480986 -314.023560077987 1106.3157274206)
(1350.42222045777 -490.549929365003 655.755853614903)
(1673.17337935511 -554.778255002851 276.678003854879)
(1649.64927752121 -306.385613207006 1055.83168294619)
(1554.09869628505 -1105.98697959305 799.762895715191)
(1386.74570038967 -308.559099465379 811.328042135577)
(1581.48190507081 -334.280116964911 491.413061271169)
(1708.97178570829 -401.441314149436 1076.18741028361)
(1184.90483302598 -656.589666456585 601.348193494142)
(1100.70490981437 -161.830252332472 661.054596794521)
(1156.14328584576 -529.950198918954 782.436553542964)
(945.404600965029 234.636635154654 876.29907676968)
(1449.56938211076 -196.710729628893 1141.46072287269)
(1429.85241292409 -212.092740428079 792.460050079935)
(1769.77519402256 -660.125654095647 701.513541199466)
(1443.77358804034 -325.340231652313 13.0381084033886)
(1147.92380690444 92.2788370681905 739.129151760828)
(1054.3289165076 -498.951875150721 601.839071812625)
(632.360303410348 -717.292359484478 733.424788790369)
(1385.21511789125 -394.56416690623 1246.05975708455)
(1477.52236132453 -280.53464455117 583.628555754678)
(1492.97020610382 -299.131163824104 1288.94214313984)
(1522.90834396636 250.508805679238 438.238794119557)
(1470.83831342919 -890.001518349162 1214.94590538209)
(1723.94620054007 -346.486395497063 682.461876373384)
(1593.24955003366 -447.402628246463 256.94178984485)
(1153.21900077147 -97.5044713250488 652.627268540134)
(1111.59100376934 -473.386032036783 475.973623958774)
(1643.9945699155 -506.329153619437 1198.22756327511)
(1155.882568781 -71.5917134505755 925.903966112896)
(1424.40511926089 -408.287231353362 920.517673382943)
(1391.01554192988 -513.150737843657 400.895197743119)
(1464.8637150763 -267.950409445422 1002.31826331174)
(1338.77852739297 -327.728300035815 738.048480820205)
(1027.029315301 -263.105736578762 982.586923696618)
(1529.17330587097 -939.362542136546 683.966611626577)
(1654.59195762143 266.514208870467 777.599599646188)
(1447.20709145181 -271.722584838503 739.513403000473)
(1337.6055409419 -470.804453127525 1172.05982038694)
(1776.73792502524 -333.338027175504 833.765132577454)
(784.532809796895 -226.79714203877 984.773394707517)
(1162.56500240011 -251.685304954722 783.253027577669)
(1536.74035888765 -28.3559706227422 1100.7998060911)
(1690.17968127244 332.138674717504 537.163356581983)
(1269.20691432026 -313.810155506746 1269.33345552421)
(1052.82145749296 -85.8331339920144 526.353217628427)
(1394.49561577505 -832.84662114875 504.936153588948)
(1433.9042957999 -290.228540748177 933.895213449029)
(1337.65726188575 20.9449552742779 1103.1335663345)
(1519.54098162644 -887.085309346291 1260.38781689519)
(936.494083544794 -192.922092456827 1257.48050907086)
(1481.32226544434 -410.607277940093 680.649102685346)
(1743.90082355963 -502.655803951609 726.563510593795)
(1399.78686822631 -129.004301007907 478.712402318761)
(1666.55959180987 -585.6874860671 677.900988743219)
(1452.7757685574 -200.540916443615 664.551844058895)
(1186.34340197822 -741.547114278389 689.369190209751)
(1222.02335839908 -577.639961726239 836.442174173381)
(1231.60801134537 -129.708079015461 666.690012648368)
(953.065301627905 -372.834732750094 825.117476481226)
(1211.60952828468 -558.785832935649 823.556546248224)
(1733.6773463954 -596.713844913623 870.748045746959)
(1474.38413527435 -456.697766111466 863.298186828817)
(1318.75826762988 -243.313336737198 489.081955183745)
(1708.85714588851 263.071941393345 523.126918268837)
(1385.64797909785 -316.046512527822 891.485161313917)
(1190.09474151103 -261.715678163863 1093.31903735827)
(1049.72968524217 -726.528044827964 1127.94295744422)
(1375.82094301852 95.9974570862923 855.193484789499)
(1435.0439016516 -150.511450194638 729.204540609507)
(1541.7965494441 -334.111560206319 953.13862351)
(1352.31637729634 -758.990930187092 770.861934828018)
(1562.39071494981 -355.676821019789 835.233547671547)
(1419.38321435474 -434.356462293286 824.451660669502)
(1236.1280614099 -442.801655712139 1107.79489062995)
(1149.53095909874 -563.812393979332 574.952143123616)
(1128.10063296989 -414.922551619724 863.979634549854)
(1559.50024495044 -443.207237544729 818.275992701111)
(1536.81418572124 -568.032762394477 629.774768424055)
(1669.70056370289 564.383938188152 889.756543005826)
(1302.68762918697 -104.946083374214 152.589479267904)
(1004.54750543364 -315.110749726259 1221.36510803737)
(1344.67540844922 104.365582604939 575.441556957986)
(1212.63331875987 -230.485904503962 93.2083149082764)
(1319.03898303536 -280.014051010966 811.277918671854)
(1649.99030010048 -170.219557845904 1133.39614957099)
(1548.55920282058 -290.155473169433 740.7730654188)
(1485.72513938018 58.1027389092824 822.76738138091)
(1234.84668451941 -547.412185885938 487.81891720416)
(1231.05049678531 -165.460026585475 745.610752680739)
(1428.46546099405 -358.470386524337 899.890450813262)
(1831.26475004807 -517.057363840094 811.276387096067)
(1202.01135166193 -1200.14793629424 1092.71148888673)
(1633.9041774731 -391.835148448475 732.448363964357)
(1263.15917439441 -620.944272110527 481.583552596583)
(852.108684659722 158.079671379047 783.536415342927)
(1094.40985982424 -868.03158967837 655.683898566482)
(1174.15242350159 -69.4364126017958 449.91933177876)
(1005.15006549831 -231.488541158073 604.065303479419)
(997.403490343147 -597.136649730847 626.511948302063)
(1543.903794154 10.0406246452283 1010.00956847205)
(1381.34373157419 99.7761692988305 1162.65488108535)
(1837.44001176457 -402.250863509882 879.453502092828)
(1734.46477931264 -35.3651336497364 506.486446368941)
(1514.43850445262 -308.766338176518 706.559955769204)
(1338.66245795284 -572.15297852693 958.700030264699)
(1112.25211558336 197.019034303269 490.86427090065)
(1526.4324708827 -408.289401094518 1626.84627354143)
(1695.09975261281 -324.863036078026 585.645597419139)
(1445.82581090674 -253.802989803649 497.155861363217)
(1457.34258515148 -250.511929236536 1300.68533036001)
(1259.02643565627 -709.07593703118 1075.41933942936)
(770.531025069007 -56.6714754306415 969.470789165617)
(1666.18594139885 -642.157003594557 986.390180024787)
(777.04006687083 -829.578744929956 961.797257179826)
(1789.42438962653 144.631657694437 1155.56013875828)
(1175.14169264946 -205.817390308921 1200.23703110326)
(856.541435304898 -727.355835720906 634.02879516337)
(1294.19131969752 123.011905609787 1097.36951737367)
(1368.02418392947 -553.611292003423 876.788794911304)
(1500.54611868437 172.570207464144 1047.02283038746)
(1641.13483766877 -396.549771796551 911.033521302853)
(1089.00373974121 -842.315054005131 1058.63412228354)
(1517.48989306485 -348.612080080515 284.474656281758)
(1603.53908213491 -561.233555878939 1262.24473770548)
(986.099796869001 -97.9915234489832 1295.08573548596)
(1686.02498805784 -478.328299874151 941.45548672013)
(1361.99113929398 -321.617144021246 985.805746746172)
(1520.39866105102 -666.841300115878 1260.44379160157)
(1804.05684189736 -670.678828587175 999.340718362775)
(1159.13724361699 -401.651859616619 111.918107178278)
(1034.36729706305 -198.895693031017 1066.24541616341)
(993.944281146224 -908.814047634823 1125.70956951878)
(1164.12451395845 -611.633433927692 490.73839047934)
(1690.78636018925 -409.543560927557 872.651736027575)
(1404.84892640564 -752.284934125709 1428.81855640903)
(1502.73928126354 -473.427217153645 559.573699091059)
(1482.90250427845 -143.012989239057 797.01964718256)
(1428.77412279549 -417.625627483035 415.690787870737)
(1580.34804696904 -581.808774612434 672.846172449731)
(1414.55543442098 -365.654707518192 692.043657869895)
(1581.31359651977 -677.457896179839 748.080848365879)
(1308.69048839169 91.3448929810489 747.804994658746)
(1471.68133901274 -468.403934560495 688.609050806604)
(996.184120268945 -683.329259554473 406.965302164873)
(1938.46073452853 -666.695310182812 886.490030895386)
(1276.91163471897 -8.35562238818756 553.839212363116)
(1012.02704775723 -619.581883174667 1009.49066627718)
(1558.62902574734 -575.473047918472 682.560066381905)
(847.764076096534 -0.632626125435024 754.422018508595)
(1336.91764330715 -827.77682175707 1108.60597627677)
(1764.27846892792 -539.752523612209 842.193949356669)
(1282.9459810542 -640.744003206978 663.126507519931)
(2016.47783937364 -264.22573510566 613.774782590667)
(1569.59846031813 -238.214253996497 788.548175411174)
(1254.42506593814 -508.007236844378 862.259894872934)
(1202.65995373981 -62.5847345782481 740.051089567636)
(1182.79335266076 -406.749327967966 770.942336558319)
(895.98771344851 128.795076550121 709.796593480163)
(1605.03027581019 -973.059970698124 880.025107490016)
(1461.54154987933 -369.13901455486 1095.99960627055)
(1595.49018802445 -152.478799789929 1078.46844467903)
(1528.54523680232 -407.042668765308 313.016040373645)
(923.762381948682 -378.498683368159 930.372459978224)
(1519.91991889227 229.544422073279 940.097132976721)
(1047.26413827633 186.094234163999 1070.75336773342)
(1826.67994375892 -541.341327348503 826.874365335483)
(1133.12899242615 -1339.52812940022 1059.76212514551)
(1161.31064945116 -240.058169810137 334.023710126752)
(1644.20526204708 -729.445324392048 894.237046039396)
(1438.81521946079 44.2463161626218 309.489883906525)
(1541.43341067635 214.528411385017 1258.27093142523)
(1135.05909666104 -478.606766192609 1077.44315685264)
(1710.4839802141 -6.46612919571021 276.778270101864)
(1667.99778200303 40.6693448368429 777.047327449617)
(1543.23323307579 -1049.25507799597 822.663482464167)
(1121.77959562523 134.135978747495 912.80181128639)
(969.224454889867 -433.478092899145 803.155885635747)
(1382.70080467176 252.342608614948 1113.41992434837)
(1373.80218285657 -284.120915898234 1125.6357291258)
(1113.89877434082 205.562878642215 243.922483652831)
(1083.45206095235 -347.085793319616 729.367058459763)
(1275.39467603643 -66.4264641584043 1255.90418287317)
(1064.50286713952 -394.845215316418 488.225651772824)
(2087.97550387933 -841.291555788577 1014.95145274287)
(1657.33972789279 -501.137431456444 320.306396354367)
(1288.17849407853 -492.696412842455 998.074047659493)
(1197.9986091703 -343.062462885996 840.846145500287)
(1488.17591205746 -98.4121184261406 1195.22503429901)
(1019.74799037721 -506.03430354591 570.511205406272)
(1682.52982493106 -898.522920196631 826.54849640281)
(652.790876631129 -672.882517677032 852.904247923805)
(1622.10522210755 -681.553138935548 1193.73448831764)
(872.271629807883 184.735718399572 750.272741588757)
(1074.00094236287 -625.742240356292 687.362035702088)
(1445.86348003499 -552.146826829334 672.791227314673)
(1198.05718248241 -307.523316952435 1178.27674824943)
(1195.12419358308 -240.748645310715 792.632166257754)
(1582.51686364528 -669.934047675194 913.87778574266)
(1230.28407180128 96.27384114824 406.192070909764)
(1553.47577043658 -103.648079567553 617.705148536446)
(1536.75438523346 -500.325829151157 704.112952916455)
(992.05403386006 -294.853899932829 1315.85406636322)
(1316.1017184025 -558.147919932228 355.379266515771)
(836.884188334578 -603.707560455305 363.291727125356)
(1088.54824669905 120.203174753576 1246.77444685259)
(1442.10192152501 -147.063312900635 1507.30622619085)
(871.811310027241 136.419850206328 695.936055454272)
(1695.98843628536 98.4238814077385 1261.55121589184)
(1116.84108880975 -6.27804053792408 772.418228707681)
(1472.48085098372 -128.71504069824 867.103950193382)
(1732.01037119224 -462.852443982959 1068.36817489671)
(1144.77869591523 -547.766627486597 657.509217878192)
(1619.30466014674 190.204360191039 945.054056733183)
(1229.7228750133 -423.782075542837 957.551963942251)
(1658.83405355944 -313.774175527983 578.822509410331)
(2190.09500042929 -681.270804538669 805.5564429287)
(1143.19428334411 -207.190561382583 730.788280058656)
(1572.05777298571 -393.410436837061 523.145057875075)
(1632.18822160163 -143.590081881306 650.974968790081)
(1168.53212165918 -489.624846194361 921.969503309271)
(1318.31287064498 -700.124948852558 525.233070405159)
(1198.60991818313 -519.529817776152 1160.90958757929)
(1304.12801888396 -208.292884757019 951.898952600178)
(1385.77286857995 -286.164936641736 517.094715811299)
(1382.68368358673 -391.401163874547 633.19738320915)
(1404.25854038652 -709.877501334143 1082.63479407735)
(1329.53136436495 -427.009486914724 995.159710870736)
(1105.787270142 -969.736707876656 432.337782032356)
(1150.60482573973 -439.480700312144 917.626567924806)
(1934.81890831452 -585.537976793064 380.117969390247)
(1787.86306522046 -602.486025889387 931.897219203393)
(1740.89384189173 -534.682850384456 778.55386984043)
(1115.73855295478 -351.117972057932 845.020318944508)
(1550.47775071836 -669.418100532752 807.013112626282)
(1163.79010767736 -147.420436108579 1190.64341125417)
(1550.75474598247 100.300778127325 846.66678460697)
(756.312746006713 -1237.12800026625 977.872520543272)
(1288.37542608379 -161.803275418719 426.567358250417)
(1172.88860440423 -590.859713293898 1256.13321456145)
(1324.63589632304 -776.932391508458 944.836797558516)
(1615.51963415068 148.511034319943 604.850954647436)
(1446.84000738825 -315.410400530771 828.765151149964)
(1181.64572259582 -715.302980058966 1034.02268066679)
(1171.18139727116 -672.82916157446 926.321530186271)
(1930.47549888312 -764.958332688666 187.288346454739)
(527.052144269753 -301.129768713492 670.19789214824)
(1491.41145110644 -217.270992547119 267.473308664647)
(1462.09837135991 -230.457597700591 695.507316803855)
(978.776991976266 67.8375872890751 616.795507281886)
(1406.25012085349 -47.9443370158342 653.918481883626)
(1625.75372184605 -340.972336192537 1300.80067773505)
(1173.32338586883 -119.013944574781 601.720680137899)
(914.994437299832 -29.3198771419851 818.813720095866)
(1385.50099419397 -632.267622839557 924.647831776547)
(1096.75052257603 -500.438535188063 705.799790716925)
(1514.11053528931 30.8667889923483 961.098317025167)
(584.192268801197 -643.053104631246 814.178745678803)
(941.49421486417 -425.950808617205 765.4514627762)
(1149.69305986056 -161.838562241477 767.684458767481)
(1103.31282146156 -486.738975816718 759.82824174882)
(1674.00092233497 -336.365381921464 195.590052799641)
(1540.28012967737 -652.686340173061 806.551181412674)
(1303.5793702306 -29.4051248264419 660.08960597107)
(1903.16859977034 -805.542360202526 1064.47419340602)
(1279.82422602985 -470.009004778909 1149.79998347698)
(1230.14140059187 -361.322137361828 981.407242065292)
(1275.76843910206 -22.1183684059797 770.57157174282)
(1418.73671203045 -220.545165283525 878.368932182524)
(1211.03941272962 -170.080844150146 755.350561089811)
(1544.97575544362 -657.115370524182 773.010222870467)
(704.206037008073 -879.118544787654 1056.11581567568)
(1715.24523440904 -114.194080191366 939.068452087232)
(1592.89608450467 -419.875835729682 500.616111653733)
(1424.19321940093 -182.671969361126 879.569064691633)
(860.405078350488 -566.473018368352 556.584460567627)
(1552.60280873549 54.4541761592944 1081.49084149741)
(1080.5420863373 -104.00717759839 828.14931961838)
(1287.95578597953 -456.488523096224 890.835958328471)
(1272.83605745497 -488.536400401305 415.065480599552)
(1728.1960600544 -523.77362769748 937.693378217393)
(1123.70325627942 -59.1293361402464 591.867843835397)
(1540.16381151222 -834.92809508833 889.237583281311)
(1266.22762468602 202.109669150608 701.395880440115)
(1700.12268350819 -462.485962990615 374.14193448545)
(1446.44030629355 -739.730737631892 786.242414949949)
(988.512400681652 -484.076164002105 637.286925409177)
(1352.58791919792 -469.984490971686 735.654233639139)
(1353.07121288646 431.892502646664 624.695664398886)
(997.5143353412 -155.21958146734 1079.03920679599)
(1132.92323418627 156.221405476777 695.025004676203)
(1520.47065109501 -29.9850103428279 982.304301441704)
(1213.7791156123 -522.947552774566 713.039247426221)
(1654.41373629164 -472.66054613929 870.221798037121)
(1072.40776429324 -179.257746228797 645.780242981732)
(1099.92791914012 -502.702527039153 912.747310980649)
(1688.41421341465 -162.552734136808 248.803467663038)
(1163.31499664329 307.92761637121 310.952942635803)
(1132.471643203 -364.794506940363 781.761353895842)
(1551.26765950809 -581.639570367176 672.1543297164)
(1479.09390278777 19.5584009542274 333.574320059875)
(1039.93717758546 256.005836792038 610.811434265171)
(368.165687672163 -277.683342123461 667.045151569736)
(1415.09674484573 -290.084605333119 974.719601605946)
(744.725748385917 -653.939221465998 451.602297787258)
(1114.05512396147 -411.534338130331 574.514951775598)
(1044.37775885781 -174.783509637254 350.446918188922)
(1525.19884248528 -268.126696801471 745.484806293714)
(1534.47165761301 -776.551904638236 879.608156691086)
(1337.59927471168 -108.973238416004 530.757374460804)
(836.377601648598 -154.527155238445 501.456273748425)
(955.537219088328 -554.562433195837 950.293927888609)
(1595.77081687173 -46.9712927383293 596.067355639396)
(1432.22850753861 -69.4834797359803 1015.55356997613)
(1703.95093499839 227.027076809954 663.399436785831)
(821.225743683598 -570.998381354327 897.112905006368)
(1073.4244759327 -355.362920578998 1030.2131434799)
(1112.20388527583 -990.112681603133 972.41677961313)
(1246.315326808 -243.893685810241 519.040863166199)
(1201.54194355604 -599.337405546126 800.272137563908)
(1319.15626985664 -117.232014316552 729.61123839796)
(1467.58441625484 -487.58179412444 334.184098869968)
(1020.97412959722 -663.369347283819 669.511426665707)
(1044.92077806915 -714.748067889353 676.610057219637)
(1399.12007200235 -611.673474436916 1066.13050144959)
(2085.89790218598 -305.566831875878 614.079071111307)
(1632.09202962805 -218.389777142777 713.0225358903)
(1267.25130667707 -311.911056643414 1464.72970906094)
(1114.16440501357 -895.592505598333 1533.87149114877)
(1012.24800445501 -916.431260916035 270.993881840099)
(1150.90874553194 -110.266797572065 1151.60981162662)
(1284.66948607718 -126.104324064442 1322.28701406027)
(1182.86973641831 -311.500251979746 400.424295540573)
(1505.82632244384 -663.839242055695 1104.14968608247)
(1617.80536305381 -297.267438152763 686.628430893552)
(1273.83003180404 -64.3105168297182 1160.6547840618)
(1657.8147185264 -373.234794604767 476.272279236335)
(1260.87444019487 38.6561740988204 775.185739310421)
(840.676157678685 -641.205945360858 999.636297884999)
(1520.15737318425 -801.188890449762 917.663713796637)
(1134.83935195082 -438.363930290566 357.307216163402)
(1237.08599572964 -73.4765706496806 699.209874527595)
(1226.13059251139 -270.846629056207 714.766016543402)
(1265.6159132006 3.81582217220341 287.671094501623)
(907.399286213524 -227.994988988157 629.199400471752)
(1388.05830417281 -511.304502266323 984.021765091957)
(1690.18103987225 -225.651102269499 567.898104999066)
(1266.42268172363 -137.337204153452 658.447549063193)
(1647.95031112772 -711.201858180618 985.305507785648)
(1618.17753333613 -156.653002204119 763.487287882741)
(1035.32692056911 145.567841582638 1359.57010720006)
(1492.34317444861 75.6359427709626 704.072994384474)
(1596.14638552661 -696.277965310219 772.546909329872)
(1249.3316472952 277.999595095111 550.929824667163)
(1815.65042130912 -590.587493570287 735.214310774538)
(1025.31666171934 -180.34938120451 1329.58665560247)
(1546.01534684452 -342.713042169267 446.845077296687)
(1970.59741041174 -384.728059027209 243.781728490434)
(1351.94718484989 -158.703433306369 650.100246647468)
(1379.61703871513 -173.359205397958 753.939505544725)
(1520.45705340271 -177.441248893515 718.280592291018)
(834.252730525082 -68.7420728604897 889.025788273243)
(1298.38604719317 207.566296094966 858.981660467071)
(1467.66183651893 -161.019663683632 623.07219214942)
(1131.95205158856 167.263638574486 766.815940669931)
(1824.01399690397 22.3725508931587 1065.10131305534)
(1439.68956916999 -478.471962815965 745.409332153128)
(1386.327011923 -119.634016964595 294.45176198281)
(1116.02199382587 -110.346859235527 877.654997539305)
(1282.65579017183 569.154647267662 873.85932209543)
(1661.37841743012 -189.175231622864 1226.88120081818)
(1329.48587601502 -21.5060450944638 565.288752607643)
(1434.3275467389 -331.508360554562 556.206844299061)
(1567.18656849056 -733.138970759575 982.700922039789)
(1524.02157840709 -273.581787523364 794.385884987228)
(1312.77584853257 -239.006408638529 1038.91568545728)
(1792.15194576134 -78.0205298544817 898.742588084173)
(1451.48320606132 -682.705471417523 641.231641921959)
(1469.34167891229 397.253860457826 933.891949751903)
(1308.93658570235 15.8641683584275 1095.62848534668)
(1091.14285323452 -455.933231332236 758.206923444849)
(1432.65854247858 -309.068520837771 1115.58905850869)
(1491.78948660907 -136.104618754407 1011.31405020533)
(1742.16587771868 -828.754873757143 831.432245332348)
(2082.74709911394 136.823160346139 912.8663947003)
(767.576362237849 -153.438340826806 1282.82869815421)
(1139.09284547892 68.7357782943424 1255.85833080945)
(813.770744792178 -554.605161856153 1081.58913410612)
(1326.91645582044 -14.6785412338147 944.022955705319)
(1383.43211456471 -329.041173450388 897.942784964545)
(1104.71789402013 -788.38252615554 529.556112283188)
(1191.98876993335 -279.270736504934 642.248219197709)
(949.729024712888 -310.192445283414 699.992755255521)
(1350.74387025047 -479.349440538639 837.135919868263)
(1865.66447082402 -633.750846600502 847.428200808081)