/*--------------------------------*- C++ -*----------------------------------*\
  =========                 |
  \\      /  F ield         | OpenFOAM: The Open Source CFD Toolbox
   \\    /   O peration     | Website:  https://openfoam.org
    \\  /    A nd           | Version:  7
     \\/     M anipulation  |
\*---------------------------------------------------------------------------*/
FoamFile
{
    version     2.0;
    format      ascii;
    class       scalarField;
    location    "0/lagrangian/dsmc";
    object      Ei;
}
// * * * * * * * * * * * * * * * * * * * * * * * * * * * * * * * * * * * * * //


6177
(
4.14556892919086e-22
8.82650796113221e-22
1.94014029911022e-21
3.92280209030742e-22
6.66392028451705e-21
1.26898083218661e-20
5.89570508544592e-22
1.72615142338605e-21
7.57549722388858e-22
2.49916104433413e-21
3.77556254113703e-21
7.73423941376283e-22
1.00872612524688e-20
8.38888108338475e-21
2.32059843813729e-21
2.32080840263562e-21
5.89250822074364e-21
8.12712197750726e-22
2.47398587249869e-21
6.27167378888722e-22
2.40392791622489e-21
5.24411707408077e-21
6.17317869707995e-21
2.12466751674659e-20
1.20752119191688e-21
2.93755251272851e-23
1.32539438725627e-21
1.41958380439908e-21
9.59046806873835e-21
6.00447463903928e-22
1.04109001388348e-20
1.32177401448442e-20
1.07567831589133e-20
4.96783102295906e-22
1.76195066989219e-21
9.15271023352011e-22
4.1080990561063e-23
3.49899992515819e-21
3.76478106969836e-22
1.09449222368338e-23
3.54586328955384e-21
6.49900604001755e-21
1.80947527487626e-21
6.12088272142377e-21
4.19719322233811e-21
2.72364525125425e-21
8.55484496735413e-21
5.56795097487783e-21
1.29804681815479e-20
8.88608085796351e-22
1.5819962828553e-21
1.25327953860869e-20
6.29222187629537e-21
8.87573359894765e-21
7.30466387256369e-21
1.28584769936376e-21
5.18834845770765e-22
1.10670262046683e-20
1.81499351800889e-21
6.13903183841924e-21
8.2177567379098e-22
7.06463438963762e-21
4.3116806972995e-21
5.85689956552222e-22
2.98829972669867e-21
2.77129091890336e-22
1.20994081224477e-20
1.05507421348991e-21
1.16435279204102e-21
4.47294776871592e-21
2.74273158188068e-21
3.15035152037751e-23
2.53435770282191e-20
8.21601163025853e-21
9.64232782346906e-21
6.92843841760044e-23
2.5261516663001e-21
1.01959608552165e-22
7.09808996185658e-22
2.57609438400364e-21
1.46860646152995e-20
4.21753395233027e-23
5.85606914543991e-22
1.41182178268935e-21
5.98222878566795e-21
5.73563728786367e-21
2.49888411246742e-21
4.73108336013981e-22
4.13178331738356e-21
7.9692271654093e-21
1.59534683298744e-21
3.04578178891434e-21
8.1172500159897e-21
2.5595770603911e-21
1.89160578701952e-21
4.4986028909838e-21
8.54969799741269e-22
6.43574873079503e-22
1.09084913918263e-20
3.17401743315113e-21
4.40634033657371e-21
2.92769058002727e-21
1.02812904402872e-21
1.76002475908128e-21
3.94904280504748e-22
1.45644386773792e-22
9.94630207743614e-21
3.65884266096459e-21
8.62191688571748e-23
6.98073605396543e-21
2.26671160866694e-21
1.68213940364672e-21
2.1855920306767e-21
3.46947340980025e-21
3.89948435539995e-21
9.38868777592321e-21
4.33048421545175e-22
1.33995059097698e-22
1.61309760119516e-21
6.82540239103256e-22
5.77109357558305e-22
2.80296323344671e-21
1.03225699406764e-21
1.13930034098748e-21
1.49364678830363e-21
3.87214848558028e-21
5.19825032285292e-22
7.91905911546516e-21
3.88493166908832e-21
6.64686922330845e-21
4.57561460220525e-21
3.53235549178223e-21
1.7306268917451e-21
1.95172935922396e-20
1.67827400352367e-21
1.04057281671455e-20
9.79875355921688e-21
8.11717718414464e-22
8.93810628249172e-22
2.19099109068296e-21
4.66993949805263e-22
1.14485285871379e-20
6.6921482724974e-22
6.35437745183646e-21
7.97966326617565e-21
1.91136361226426e-21
1.40819225691865e-21
5.26924645741692e-21
4.1459382151721e-21
4.90120913896947e-21
4.18841934144778e-21
3.65025981923838e-21
6.21792648834761e-21
3.38366040019215e-21
7.94127091112911e-21
6.63608544369845e-22
6.95104343180873e-21
3.96612335664665e-22
4.36453574360089e-21
2.71955334066883e-22
5.10594650878845e-21
4.78540223745786e-21
2.73313972545744e-22
1.83807331027621e-21
6.47377510183283e-22
1.24970593060689e-20
4.42430342518044e-21
1.59834316723822e-21
6.0042423477403e-21
4.64478294452228e-21
3.91626061085377e-21
4.05349242380226e-21
6.75512340852294e-21
7.2405570719542e-21
5.28718621768206e-21
3.72761475257586e-21
5.69745747369422e-21
4.73591286550326e-22
5.94553182257444e-21
3.95888010947246e-21
1.17184835857723e-21
1.47219215691911e-20
1.9995420239995e-21
1.0301894118197e-21
3.88445634724673e-21
2.44057704682306e-21
1.95820426337071e-23
1.15057038198891e-21
5.68286540003821e-21
4.50210262757445e-22
7.30588258385122e-21
6.65129321444073e-21
5.17932411262782e-21
5.84561596595317e-21
5.48135551169234e-21
7.10110122291417e-21
2.53594319586538e-21
2.36525304507234e-22
3.34426154623103e-24
1.58259709415815e-21
4.32734071897919e-21
4.43419653580244e-23
1.98763488495269e-22
2.3805053712982e-21
4.87523384378155e-23
4.71650891399981e-22
3.45992569798969e-21
2.70064959357449e-21
2.99686035006508e-21
1.86683564702709e-20
2.98187123761881e-21
5.3941157991082e-22
1.26490763131378e-21
3.31066281877939e-21
4.32891534296017e-21
1.74123779577499e-22
2.601229874546e-21
6.66058338159527e-23
3.71291994303814e-22
1.42763675306055e-21
1.51419616646482e-21
3.34177141985874e-22
1.08225967021335e-21
4.7814284377561e-21
4.59008712676162e-22
5.87268907748348e-21
3.9330845635929e-21
7.52616777218507e-23
5.42571052245926e-21
1.26727356850262e-21
3.97031074803735e-21
3.42975413608956e-21
4.6569921972476e-21
5.32329870452428e-21
6.87820342010353e-21
4.99468239436395e-21
1.13433107865874e-20
6.36442276846099e-21
9.01062419711892e-21
2.0554812541888e-21
6.8059913709128e-21
2.60608751614458e-22
2.65363857744337e-21
3.99600430554545e-21
7.32468283287657e-21
4.82804186593942e-21
6.70770110900073e-21
4.24779368263645e-21
9.52834401577643e-22
3.93975751287318e-21
1.68987474875446e-21
1.89235891964764e-21
4.15745205619492e-21
5.17333503706847e-21
1.74609822864143e-21
2.60408256085608e-21
1.58973672400596e-21
8.20150472598902e-21
8.20155815819336e-22
1.59994770802057e-21
1.82253014180043e-21
1.1312775794496e-21
5.22881057452216e-21
1.87079437885895e-20
4.54327057794352e-21
2.92035053479441e-21
1.74157027336423e-21
9.19136626327735e-21
1.28676592759851e-22
3.2714903354709e-21
2.53506391311453e-21
3.73908115185396e-21
1.75900861895889e-23
2.14973825006265e-21
4.49880934923201e-21
2.26085607590444e-21
4.92271685280156e-21
1.38667231213779e-20
8.89600783080364e-21
5.77794578075517e-21
6.4247783959862e-21
3.83229407746797e-21
3.1285520785313e-21
1.39305682235366e-22
5.75714399076132e-21
3.93072168671681e-21
8.1514212081388e-21
2.31789618829869e-21
1.07618942982352e-21
4.13375615373033e-21
2.35697938740234e-23
3.64973363441438e-21
9.66800977227793e-22
1.85610657532714e-21
7.20091027664756e-21
3.24063726721342e-21
4.34732002517428e-21
7.23328102160065e-21
2.54250656037588e-21
5.27970415412526e-21
1.17259345547298e-21
2.62239086962419e-21
3.55138779626346e-21
2.23681752014405e-21
2.17774575857161e-21
1.52153700542982e-21
1.35118555939403e-22
2.27744537016966e-20
2.15071657135616e-21
1.22898721159816e-20
6.2526226011296e-21
1.56976119210939e-21
2.67300013428858e-21
1.31887884337362e-21
2.84232445379544e-21
2.88377423501e-22
8.74601431970525e-22
6.67183886135995e-21
2.85936824892283e-21
4.95060144655277e-22
1.55298056344827e-21
2.14500513223223e-21
2.79199900291816e-21
7.79823281174571e-22
2.54319899595334e-21
3.61913406665746e-21
1.0714445842059e-21
4.53586297360663e-21
9.80968501438841e-22
7.37755181922169e-21
6.81774123587022e-22
3.73245286377344e-21
7.89202063368879e-21
2.23453148932964e-21
1.23009231110536e-21
3.84965372492858e-21
2.46133779768196e-21
4.36624993150607e-21
2.84221035598454e-21
8.69340666469039e-22
3.91808203548249e-21
5.84033612210647e-22
6.71285451634297e-21
1.31835632571916e-21
6.77251865102698e-21
1.38526036127136e-21
1.71875030970293e-21
2.9809654955162e-21
1.59024387178718e-20
2.05827500162133e-20
2.29595882153578e-22
1.46897289055216e-21
1.91424751879381e-22
1.65198347207644e-21
5.48207354946777e-21
1.96238656370397e-20
1.41696968546941e-21
1.6663054446775e-21
5.25547521207707e-21
3.89342564742704e-21
4.97560532452284e-22
2.98363300501589e-22
3.48531496509815e-21
4.05234431834972e-21
2.77532258915382e-21
1.6533658537645e-20
8.83491932068283e-21
3.78150147901117e-21
4.52816043999944e-21
2.90386662749642e-21
8.51488324110986e-22
1.27890838205819e-21
4.57358296402252e-21
2.01004464639248e-21
2.79446011105079e-21
1.01997443537549e-21
8.60856808966856e-22
9.55380764808748e-21
8.04755034479766e-22
3.54147270216111e-21
1.02644826747776e-21
1.09966119077252e-20
1.07255379714444e-21
1.09667700816658e-21
1.16890336532431e-21
2.93448554641742e-21
2.15582918180243e-20
1.04103395741347e-20
1.16632178166698e-20
4.27859123176042e-21
3.92544643087178e-21
7.15736997059683e-21
1.3040529057596e-20
5.05533266620102e-22
2.06020182647883e-22
1.80966746778045e-21
5.29687740092847e-21
1.04278221409053e-20
7.54137740748186e-21
1.20081470306628e-20
9.80697685481842e-21
6.4649035296348e-22
8.83718698531239e-21
4.00334994801177e-22
2.82365292021816e-21
3.09680109276545e-21
2.62918813462684e-21
4.56775785841931e-21
5.78252471582172e-21
1.15025599807283e-21
1.6696903967634e-21
8.86034721494298e-22
6.05475439689594e-22
8.15422075181035e-21
1.49913310717512e-21
1.36143861519531e-21
6.26857190536433e-21
9.24166606582279e-22
8.60332745594238e-22
5.86732279221312e-21
9.08272883354854e-21
7.83825644131223e-21
4.65919173367606e-21
6.07046473583909e-22
4.75688403837308e-21
1.74540939042815e-20
6.97487308418029e-21
1.05647417130818e-20
6.65301545086168e-22
2.25475941078316e-21
2.77802503285805e-22
2.96832509662212e-22
2.88528196994883e-22
4.11176268326407e-21
4.95006813662429e-21
1.27424624929165e-21
2.423808437065e-22
1.68505337581898e-21
7.88780203520147e-22
6.34682722758731e-21
8.4903618531585e-22
1.55848632671783e-21
5.65273200315226e-21
2.76941073752191e-21
2.91290734963349e-21
4.20357445790153e-23
7.11810638049803e-21
1.06066957915418e-21
1.76435807550261e-20
2.58629762151263e-21
5.63181558159439e-21
1.02547910059172e-21
4.43405937002953e-21
1.90062653449522e-21
7.28321800467527e-21
2.14622412374321e-21
3.74561058522773e-21
3.8267602520452e-21
5.96798706467061e-22
9.60598875860937e-21
6.15437247421538e-22
8.11904913589097e-21
2.05013479830829e-21
1.82025206526288e-20
1.90312708022656e-20
2.3266657905257e-21
7.40031304685946e-21
2.10911949901191e-21
7.43407924124673e-21
1.60078340023668e-21
4.06925266894882e-21
7.30083831976265e-23
8.82433088629e-22
3.62730905534466e-21
3.19035589106951e-21
3.65559760326678e-21
2.23860551846821e-21
1.97647161187516e-21
3.24421873989915e-21
1.96560084743807e-20
4.67103173388384e-21
3.67411901754337e-21
7.77289556223076e-22
3.73274821139238e-22
5.14558939299905e-21
4.7753542986364e-21
3.15955912830045e-21
3.85473868208215e-21
1.85628474550606e-21
2.23003326982387e-21
4.17104750859443e-21
1.79322782635419e-20
2.11798002895397e-21
6.37902318702502e-22
4.62865573824815e-22
4.8299965176251e-21
8.11310627490484e-22
2.9992633972955e-21
4.92524573079722e-22
1.92581401083767e-21
3.53359135539625e-22
1.09709518640577e-21
7.21611124681141e-21
1.83905602121406e-21
2.52572304424027e-21
7.73948623287246e-23
3.73828487049806e-22
5.92599169233796e-22
1.91963170550148e-21
1.49488995203822e-22
1.17331200350725e-20
1.45888355764681e-21
3.4323453897947e-22
8.23148989817598e-22
8.13531670906956e-21
1.65367001467792e-21
9.20922582176269e-21
2.15404546471974e-21
5.40003357112821e-21
1.61920708405077e-22
5.66189953195098e-21
9.80572996730565e-22
7.21173649768535e-22
3.23891468062388e-21
4.47303741344339e-21
1.27203537340989e-21
4.61737213469956e-21
1.13965439626274e-21
5.54583430932508e-21
8.81201865466332e-22
5.06637546473141e-22
1.28846525627459e-21
3.01449522004919e-21
7.14086787452133e-21
6.26670393040018e-21
5.65699821036934e-21
5.14595065911429e-21
2.17877761356812e-22
9.36843775065734e-21
2.64216009564171e-21
7.12047943700027e-21
1.33660824352245e-21
1.33110150153929e-21
3.38932377420075e-21
5.79065439810678e-22
3.41552907733476e-21
2.6325725439919e-21
4.48388882362913e-21
1.70588718016662e-22
6.55518488764252e-21
2.18380951541623e-22
7.95221801148067e-23
4.44202528969616e-21
5.40867358313912e-22
2.83331004115285e-21
1.91394228837168e-21
4.73797772008365e-21
8.27673367738019e-21
2.21101636136603e-21
8.36905944293474e-22
3.66723052600066e-21
2.70907213486316e-22
2.93213662917453e-22
1.06321311782293e-21
1.07419627280266e-20
4.83112361528901e-22
1.32182495774552e-20
6.90969605498453e-21
2.84474533300247e-21
1.43266822748183e-21
6.80615459069129e-21
3.07175395808694e-21
4.27146115176209e-21
8.59672783070152e-21
6.74695235619987e-21
3.20516479500935e-21
3.47002192675764e-21
1.4801912151025e-20
4.07605810426848e-21
8.8192735564066e-22
4.16624996169756e-21
3.51876673598201e-21
1.80809998076695e-21
6.46635888463389e-21
1.43958742953554e-21
2.21573665652092e-21
5.97105970230672e-21
4.32623366654984e-21
1.25276415942392e-21
8.01351708851946e-21
3.15537127752374e-21
2.30525888892276e-21
2.92200945527929e-21
5.70517584870039e-23
1.04720176619369e-21
3.04823287418553e-21
5.14256437479764e-21
3.54353931389071e-21
3.20752470975184e-22
4.41816060777558e-23
1.54188760627069e-21
3.33905188940698e-22
1.15553133633173e-21
6.08261682038554e-21
2.53905655927454e-20
2.53422744940382e-21
3.62686156219319e-21
5.27510956712244e-22
8.10328535863551e-22
3.43975322575982e-21
4.4576019214515e-21
7.98312065210737e-22
1.59140738933117e-21
2.15964407194735e-21
3.76246798588122e-22
3.72815704104601e-21
1.98917720338264e-20
2.0832056311375e-21
2.29463439976397e-21
3.18054419156752e-21
5.71786304506625e-22
4.21298921568278e-21
1.72646106752233e-21
6.65574749452102e-21
3.6871979357995e-21
5.23376890377487e-23
1.03359089461473e-21
2.31217351917821e-21
7.56934746952494e-22
4.0956666223558e-21
2.07137091092548e-21
8.29114627783437e-21
1.27764616045452e-21
3.19956335484408e-21
4.10052248528499e-21
7.6128078768142e-21
3.96735287023755e-22
2.44104045667701e-21
1.21647991446666e-21
7.52232349603592e-21
2.73812565393033e-21
9.39618246536487e-21
1.44692275429682e-20
8.56530287000137e-22
6.83475647744004e-22
7.19164062351984e-21
1.48281432384492e-21
5.80685311101719e-21
2.43682529145428e-21
1.32557581843465e-20
2.12336948524438e-21
1.01352772416509e-20
6.50205465867763e-21
6.24162980118707e-21
2.84141584213767e-21
4.41942231634132e-22
6.8027035377672e-21
6.58664484239081e-21
5.05517195284046e-21
8.35696829816856e-22
3.31830296392812e-21
1.10733855877778e-22
1.3209273600304e-21
6.53572661801714e-21
5.90789647774874e-21
1.23682887953944e-21
4.09046013022755e-21
4.93680559640179e-21
1.23301691989907e-21
1.80127893518384e-21
2.59784932933896e-21
1.7867088362121e-21
9.72844290221604e-23
7.60825731316181e-24
3.45391764361888e-21
2.09981069296017e-22
1.0388642612438e-21
2.31721689738623e-20
1.20925763193167e-21
3.28257659692583e-21
2.89837810018489e-22
1.08539088736255e-20
4.47164027230565e-21
7.42900789155003e-21
3.51308132130657e-21
2.0107179395074e-21
6.95519773903849e-22
1.98439838045835e-21
1.15435882208795e-20
4.58919553124767e-21
5.3051295487241e-21
1.03078209661604e-20
6.44005709913302e-21
1.71436257307476e-21
1.19380618319162e-21
3.96810930637175e-21
7.45683108355125e-21
3.72308295360309e-21
4.2765380072191e-22
1.67204525756535e-21
9.34894545351387e-22
2.08575013132541e-21
5.42326201095194e-22
6.01699518814866e-22
3.40056787892416e-21
6.29108819869955e-21
9.75747576395563e-22
4.77932954306564e-21
2.14160336738561e-21
8.71542058619536e-21
9.67866861599069e-23
9.90873049374193e-21
1.68709849440279e-21
1.39902579842779e-20
6.59469850849767e-22
6.85515786659048e-21
1.83958372736948e-20
2.35330318253431e-20
6.3043969773021e-21
6.05099729989713e-21
1.75210897068555e-21
2.35429875316354e-21
1.47450485566293e-21
6.46818996994007e-22
3.94962890388465e-21
7.77407549845114e-22
7.15889154890611e-23
1.96350030296862e-21
1.311797494062e-21
3.30120985905155e-21
2.30627196507757e-22
3.01551758036364e-21
1.62207336809544e-21
7.74402071281792e-21
1.51961664914578e-21
1.51004703519348e-21
1.41871550986267e-21
2.35662390004921e-22
4.17669793911792e-22
4.54043699477025e-21
2.66079563357488e-21
9.89694327326153e-21
1.27143648582035e-20
1.19836276097108e-21
2.81933909050424e-22
1.29437238187119e-21
5.66173417488985e-21
2.85897149323774e-21
7.7057272996236e-21
7.52503519165084e-22
4.8329401497291e-21
2.634427271268e-21
2.83336286554054e-21
4.10718160312683e-21
8.65488875850719e-21
1.64685060400028e-21
1.77941447485342e-21
5.86344669913328e-21
7.66083457060829e-21
4.8307174367303e-21
1.27344251985127e-21
2.30626446855253e-21
1.04291161850159e-20
1.30076388957369e-21
4.05860891714084e-21
2.99837603747572e-21
1.90607474150609e-21
7.59282958119739e-21
1.68636986621543e-24
4.40744444881632e-21
5.73900671774803e-21
2.60224096048917e-21
2.15751643479085e-21
1.30980022869126e-20
4.1836729172057e-22
1.1817539367952e-21
2.74299021763222e-21
2.28307197532842e-22
1.30222009151654e-20
2.00883207980079e-21
1.71556475341871e-21
7.76255215213598e-22
3.44838577971489e-21
6.83660196209038e-21
6.1315207654624e-22
2.3556722360183e-21
8.17108502642491e-22
6.70135526339174e-22
5.53947020962986e-21
1.06070679783554e-20
2.32681441152032e-21
8.41765690504491e-22
6.12534273303232e-21
3.15017766979152e-22
1.50507642542274e-21
2.4104732190592e-21
4.38752391138306e-21
1.01882687285443e-21
4.34183720148645e-21
2.06693832522903e-20
2.16988177317442e-21
3.4750772592259e-22
2.02256836003538e-21
5.75609197838568e-21
2.22715288220959e-21
1.07688110719382e-20
1.4032592950047e-21
3.49873757139822e-22
5.64122096326783e-21
6.04973950818966e-21
7.9460043783942e-22
3.98714363118864e-21
5.72776807236008e-21
3.198597305961e-21
4.65100306338564e-21
1.25401103224424e-21
1.79026595581397e-21
2.48936502251185e-20
4.54516663431741e-21
1.40134044141412e-21
2.06042104381507e-20
1.93489298807141e-21
4.52446448126244e-21
5.89907105599406e-22
3.11369031881107e-21
8.15984684733079e-22
4.78194115865245e-21
7.21656917688469e-22
2.02080065850554e-21
1.72305064382353e-21
4.79226175472918e-21
6.70936726211592e-22
9.84703612163669e-22
2.6897481084654e-21
3.67479859214963e-21
3.51213820561782e-22
1.70420045961732e-21
4.06602674711528e-21
6.63083070645618e-21
3.30409397087578e-21
3.24789555101373e-21
1.19138648528354e-20
4.11493918170669e-22
5.43156326151199e-22
3.28423429792874e-21
4.81880055711241e-21
6.21495352096698e-22
6.98966887004024e-21
2.82720617851216e-21
3.77584153689559e-21
4.22487342384219e-21
5.72936754640443e-21
6.40003505991919e-22
1.19240297741849e-21
9.78653239881349e-22
1.02133656425797e-20
1.84594166039967e-21
5.066349010876e-21
1.3704048849856e-21
8.71398584788879e-22
2.43430194987367e-22
6.51761096177888e-21
2.7310867209543e-21
2.30065318538303e-22
1.63326022721758e-20
3.40190443850021e-22
4.03026672040922e-21
5.77447013104201e-21
7.9144651264235e-21
9.74348786781964e-22
9.54791228784339e-22
5.13475534838362e-21
1.12535596949496e-20
1.07209981877562e-21
1.74156622637293e-21
1.6834540619931e-21
1.09160812169825e-21
6.37418898812489e-21
1.80774462093476e-21
1.91742662728016e-21
5.18420937931076e-21
3.23118817061912e-21
4.93390096718604e-22
6.27037207695086e-21
5.99494494719262e-21
3.100640551787e-21
1.45447935857359e-21
1.23186263967596e-20
9.43652984530244e-22
1.90980120480836e-21
4.57042957567023e-21
1.80011614760984e-21
3.91300299053846e-21
2.51099987356363e-21
1.87869669098348e-21
2.2398315304906e-21
1.09187830024176e-20
2.60460524131172e-21
1.50771050685389e-21
5.24676716216307e-22
1.99095319725371e-21
4.75890639803755e-21
1.26720857131737e-20
2.88468816822505e-21
4.29782091830253e-21
4.58379737347762e-21
2.92439060145511e-21
1.14594079675403e-21
9.43909397642446e-22
8.570952895071e-22
4.29411824806265e-21
2.04316062862343e-20
5.72304821066772e-22
1.3985887396679e-20
2.9399112292023e-21
6.26062831278915e-21
1.5349480274605e-20
8.60466600234544e-21
5.63584510250911e-21
3.39237452714663e-23
3.36681685720909e-21
8.9626267516757e-22
4.65764416979589e-21
3.62103777424936e-21
3.52988066912213e-22
7.68010644640895e-22
5.77563044659289e-21
1.29867454073666e-21
1.87912962511925e-21
1.09490848845994e-20
2.05453254806339e-21
3.92951221377239e-21
5.96066996685675e-21
1.97789673851736e-21
3.49631633831714e-21
4.49611345905028e-21
5.82394368441443e-21
1.49692660502541e-21
2.25023206898394e-21
7.64118934275164e-22
1.87173446417864e-20
2.79685271289361e-21
6.5432777772651e-23
8.54060515445507e-22
5.29501818136557e-21
5.93632601621345e-21
4.50593328461888e-21
6.68194854650933e-22
4.47488760609899e-21
8.62677395963228e-22
1.89126915456298e-21
3.93258489249092e-21
5.73389948442247e-21
3.86580288145753e-21
6.10743496533211e-22
1.56634599256056e-21
1.96208328278013e-21
4.21204988237018e-22
7.49260319030367e-21
6.16872967915862e-21
3.45700738510223e-21
5.96787984213441e-21
6.01829181464567e-21
3.07012441792442e-21
5.5208993449701e-21
8.67295816774159e-21
4.43728650011774e-22
9.11725180043224e-22
1.43053602631606e-20
5.62934445076764e-21
5.34769490148703e-21
6.53916042658374e-21
3.43267551570079e-21
7.90356657335109e-21
3.44948225992028e-21
3.21023368691859e-21
2.06117613625809e-21
6.23346896427291e-21
7.70093646127545e-22
3.83048292383874e-21
7.72472567863129e-21
7.02986150290744e-21
2.50843926235778e-21
3.36880080909251e-21
8.96691064320351e-21
3.71931033387593e-21
2.42053777580368e-21
1.79004737129621e-21
8.69042247130276e-21
4.31902916756307e-22
4.07724640464735e-21
6.46202149894019e-21
4.61522384759568e-23
1.39488074743986e-21
1.78020011784758e-21
4.1114038953398e-21
1.72227836378672e-22
7.87855136164592e-23
1.88044999147638e-21
1.72628335354254e-21
3.07285787681971e-21
7.65458265769098e-21
9.33547612054601e-22
1.14348290285802e-21
1.92013129432505e-21
5.09017063130145e-21
3.42136304012736e-21
3.11124553602622e-21
1.58531898511208e-21
1.75619422487625e-21
7.9417266904128e-21
5.23189559585635e-21
8.9760847385027e-22
4.58294057601025e-21
8.23700392593863e-22
9.05115173484111e-22
2.83529568683736e-21
2.72950531056083e-21
6.53611160233047e-22
1.24304290124733e-21
4.12798395415131e-21
2.96350070944976e-22
7.51297129894705e-24
5.66184755258073e-21
1.93597454146299e-21
8.78385080268065e-21
5.49356246890376e-21
3.04144321724241e-21
1.69875424834586e-21
7.50584131312157e-21
4.60915151159136e-21
1.79129398287826e-22
1.09355951810529e-20
5.4663741774028e-21
6.56073406900456e-22
1.2267060919451e-20
1.31282498889859e-20
2.09429510040794e-21
1.42484357503938e-21
1.98573212976855e-21
3.28771580231072e-21
8.27416588674171e-22
1.03257832707358e-20
4.08066211911657e-21
4.35995590742126e-21
5.37188031707497e-22
4.30859543514087e-21
3.90607731723612e-21
2.10302366548867e-21
1.72192792379201e-21
1.87350671276582e-22
2.43441345883719e-21
1.07250326966527e-20
5.35502217352505e-21
9.37756910399482e-21
1.86270926459801e-21
1.67376495576758e-20
4.97048087624785e-21
6.25753375510226e-22
1.62512240921484e-20
1.73727292549353e-21
2.82787716272807e-21
2.86651247750103e-21
1.81508138295216e-21
4.63876765486988e-21
1.27016365804758e-21
3.39062242472907e-21
4.39488602636898e-21
4.53242710323709e-21
8.59534815541229e-21
1.8559394085522e-22
1.20779631047415e-21
1.23173494014246e-20
2.60275747175836e-21
2.75189801097454e-22
6.19161625916817e-22
2.0600462948083e-23
1.27095328847472e-20
9.28569127033259e-22
1.95940908104444e-21
3.07138385209251e-21
1.33078434376888e-21
2.14034827254295e-21
2.88923092865968e-21
4.23705968807222e-21
1.05572568611085e-21
4.04990285456639e-21
2.82607858482453e-22
7.00295319906899e-22
2.10981956348876e-21
3.93809751464116e-21
2.01504848940636e-21
2.43761605689406e-22
8.81800033846026e-21
1.33112700230057e-20
5.98635283044382e-21
2.05427815623995e-21
1.75934619957538e-21
3.14642344838808e-22
1.07098752011537e-21
5.81980614732832e-21
2.84997688204512e-21
1.39131414669696e-20
1.34519865754473e-22
1.03080058001829e-20
1.41623542262131e-21
5.13670754505257e-21
6.59691928847023e-21
2.77073646645299e-21
9.81759842867971e-23
5.67955388010445e-22
3.59639623729765e-21
9.8016338807371e-22
9.03078603593393e-22
2.15585552621744e-21
2.0847544162723e-21
1.33178677722487e-22
6.11297530374759e-22
7.45505110186532e-22
4.50484600429647e-21
9.87219793553747e-21
1.25180658213952e-20
8.93339230571145e-21
2.20160755932785e-21
8.07907802635039e-21
1.64197686485617e-22
9.14944217844522e-21
5.49220146908419e-21
6.58559819890487e-21
1.94190186570861e-21
1.55937691338238e-22
5.05338663036225e-21
9.856340428785e-22
7.79478984453755e-21
1.0951758430353e-21
8.56948780751331e-21
4.60191157519848e-21
5.04926454978899e-21
5.09095464824184e-21
9.13195473010007e-21
2.11745590539427e-21
2.3741488219086e-21
5.27652790193419e-21
3.81728393466297e-22
1.22182139154186e-21
5.54089799463455e-22
1.66072977934166e-22
3.55323496537206e-21
5.39303511750666e-21
1.18532989582436e-20
4.74203206444535e-21
7.07942688058636e-21
2.86988307892981e-21
5.0216142748732e-21
5.60515727962009e-22
2.02326737506974e-22
1.739534484147e-21
3.6256382936766e-21
4.57121859756421e-22
1.03991601659534e-20
7.53370315857914e-23
1.40751154747659e-21
1.424870324087e-20
2.31898895465838e-21
2.68148907400046e-21
3.56628799389447e-21
5.46147340396746e-21
3.30130817828725e-21
2.35833810131086e-21
7.16602740698878e-21
5.13880048553325e-21
1.22016794422487e-21
7.99267431219196e-21
6.52928849326606e-21
1.33080537214951e-20
9.03555670501554e-21
2.57923365578125e-20
3.60001225907697e-23
5.0133545001674e-21
1.35354144421507e-20
3.01458978702255e-21
4.34560535841025e-21
7.77458498867806e-22
4.16826117314683e-21
5.06578251329685e-23
6.97805584294452e-21
9.96538357520456e-22
2.12480623057835e-20
2.89517777268547e-21
1.32155223761135e-22
4.32282032634682e-21
1.03397093184252e-21
1.48335206656928e-20
4.75368977158397e-21
2.18104621684591e-21
8.19582665204134e-21
1.9460227586717e-21
5.57360293259541e-22
1.97201327478764e-21
3.242129804032e-21
1.50798367726179e-21
1.87857625975503e-21
6.91531368617681e-21
5.15922275948828e-21
1.22440036296812e-20
1.42347951585838e-21
4.21923891649787e-21
4.38561548834799e-21
1.11486671050531e-20
2.38599745522344e-21
2.88049458872692e-21
7.79576876057869e-22
3.30908491750873e-21
7.53123097540444e-22
4.49511516009498e-21
3.79276466145044e-22
7.11174118263853e-21
3.85996834866657e-21
6.93210715940518e-21
1.11832966911847e-21
9.76137839891908e-21
1.35578060351912e-21
1.56774155791303e-22
5.89147850921057e-21
1.08849826199173e-21
1.6322121040542e-20
3.01267681122915e-21
6.26840095638283e-21
1.22418321462029e-20
3.1180947635138e-22
2.74107258915131e-21
3.14115875932893e-22
8.08442604666039e-21
1.50733426413807e-20
4.62175843212723e-21
3.4875488901265e-21
3.97513304492729e-21
8.2414332742968e-21
8.8104114458475e-23
3.27066027569553e-21
1.44030578342913e-21
3.30743288728982e-21
7.51742938082314e-22
3.70700273180141e-22
1.19391115736756e-21
3.66110439923e-21
1.8701611344701e-21
8.89710094382033e-21
2.76191443477107e-22
7.99506517505413e-21
1.55882699348669e-20
1.09942782628302e-20
2.74975464746782e-21
3.80787368253982e-21
4.41496540657612e-21
5.23545087684913e-21
1.68374689611125e-20
2.03887879660303e-21
3.4534434080041e-21
1.33787067899843e-20
7.4762158984273e-22
1.30462248219087e-21
1.94169231733545e-21
6.09562768379315e-21
4.93757775064785e-21
9.35657753983212e-22
7.74046400535199e-21
5.30012222566435e-22
1.20667117624167e-20
4.79047966216613e-22
5.93226157132973e-21
2.88742504431448e-22
4.45769191885693e-22
2.00621477667518e-22
2.608907257528e-23
1.70946558673984e-21
3.18702716857202e-21
7.00364545027718e-22
5.0069959080597e-21
2.40576703843136e-23
1.39683586109663e-21
5.092380527733e-22
7.11420759858234e-22
2.97242765391333e-22
4.15503171375901e-21
2.03108038077233e-21
3.1203782746175e-22
1.27997503567839e-21
4.2651948965808e-23
5.30262799875384e-22
4.09821591857407e-22
1.59611684125659e-20
8.2417430539802e-22
1.45449744306532e-22
4.39328476187736e-21
1.56937288417119e-21
1.98160314678888e-21
8.18475686236916e-21
3.02023609978178e-21
6.9923833015263e-22
2.4156570249838e-22
5.05735743309305e-21
3.19242824711417e-21
6.36786951842907e-21
7.3630956000873e-22
9.30568988832485e-21
1.99106763613473e-21
8.45964176726954e-21
1.23331305117522e-21
2.49162224739731e-21
1.11307918164743e-20
1.37623368207428e-21
8.35857519166904e-21
4.09834399882631e-22
2.76807522420513e-21
1.25762728129975e-20
4.19052571997358e-21
4.98958973077229e-22
6.12866076421458e-21
8.96101335620606e-22
7.81406060649603e-21
4.36951727187494e-21
3.80970754891882e-21
2.14837204490837e-21
1.64915946548813e-21
2.97302114482526e-21
5.01457583379017e-21
5.39375591465508e-21
7.32789086301288e-21
3.15878646929265e-21
1.41211778848502e-20
5.93703730662579e-21
6.82431817595254e-21
6.27278252821442e-22
6.76532155069483e-22
8.35669133713442e-22
7.04229515419208e-22
3.42317662557083e-21
1.16813103614837e-20
5.6931977207444e-21
2.69858561583027e-21
1.30604064721452e-21
2.32015984535804e-22
1.41230651499655e-21
1.46117375819006e-21
2.89231407892473e-21
6.63180872593206e-21
6.84758786555892e-21
4.10773227620828e-21
4.20057126916027e-22
3.89424612640311e-21
7.865933269066e-21
1.61015115150605e-20
3.10485022440027e-21
1.01291526818913e-21
1.12366157744557e-21
6.38042115700865e-21
3.24720920788199e-21
6.12791434752106e-22
4.26530116134606e-21
8.3481927635882e-21
1.12156935535241e-20
7.1015137055396e-21
5.55993460830272e-21
3.78871284289877e-21
2.71053398098015e-21
1.47638527362679e-21
7.27667143750333e-21
3.23270468018347e-21
2.51271877722349e-21
2.30936004004135e-21
3.60569884593565e-21
1.06384126662632e-22
1.18961119814026e-21
1.04302982914504e-21
9.01852535235445e-22
5.17938237757139e-22
3.50823429336363e-21
2.17163571115135e-22
2.10369633439186e-21
2.98336827785088e-21
6.00068488122098e-22
4.23580964873676e-21
1.87170664935246e-20
2.41870581539363e-21
5.62508792665616e-21
1.46552394453752e-20
1.14758047138488e-21
1.29808591770158e-21
1.01532800729033e-20
5.70412265942912e-21
8.68066533893043e-23
9.2583590630002e-22
9.93053912711784e-22
3.83756330106915e-22
1.31772422964939e-21
6.55914552755193e-21
1.21021252657437e-21
1.29215293736474e-21
1.26702109833629e-20
2.75115687677237e-22
4.05677152207346e-21
8.07906494957871e-22
2.39218015775534e-21
9.57770629516402e-21
1.69988295266705e-21