/*--------------------------------*- C++ -*----------------------------------*\
  =========                 |
  \\      /  F ield         | OpenFOAM: The Open Source CFD Toolbox
   \\    /   O peration     | Website:  https://openfoam.org
    \\  /    A nd           | Version:  7
     \\/     M anipulation  |
\*---------------------------------------------------------------------------*/
FoamFile
{
    version     2.0;
    format      ascii;
    class       Cloud<dsmcParcel>;
    location    "0/lagrangian/dsmc";
    object      positions;
}
// * * * * * * * * * * * * * * * * * * * * * * * * * * * * * * * * * * * * * //

6177
(
(0.495043368078765 0.0905051655136063 0.203784712124616 0.210666754283012) 0 0 1
(0.0168613586574806 0.606981406919658 0.255189854651689 0.120967379771173) 0 0 2
(0.181456462945789 0.0128232329152526 0.591942272149027 0.213778031989932) 0 1 1
(0.0357586345635356 0.177235402632505 0.3521894980222 0.43481646478176) 0 1 1
(0.834959069266915 0.0188317117281236 0.0327734486199916 0.11343577038497) 0 1 2
(0.0532149812206657 0.0158291021361931 0.00397833110764479 0.926977585535496) 0 1256 2
(0.222887770738453 0.128067669458689 0.230625243857501 0.418419315945357) 0 1278 1
(0.068898874334991 0.186747916042805 0.242573247291147 0.501779962331057) 0 1278 2
(0.0906294141896068 0.536109456326813 0.331410160288218 0.0418509691953627) 0 1308 1
(0.131907627452165 0.473018536809832 0.388981700874864 0.00609213486313893) 0 1962 2
(0.0496639078482985 0.685435637366027 0.173972451593725 0.09092800319195) 0 1962 2
(0.362523547839373 0.381822152528912 0.0929081570357084 0.162746142596006) 1 2 1
(0.27180087333545 0.408961709123105 0.15747573459521 0.161761682946235) 1 2 2
(0.360132724512368 0.096188961993903 0.0983564304187903 0.445321883074938) 1 3 1
(0.743670119903982 0.0447250595316277 0.173276063986123 0.0383287565782679) 1 3 2
(0.0282475971616804 0.212440979201347 0.675189195666462 0.0841222279705104) 1 3 2
(0.444781869649887 0.0675281025469303 0.389984820038082 0.0977052077651007) 1 1279 2
(0.131071210373193 0.297689887229353 0.457495596725494 0.11374330567196) 1 1330 1
(0.0167426737025379 0.751819317229093 0.146627213340253 0.0848107957281168) 1 1330 2
(0.370229087304324 0.0161838675849138 0.57576752640307 0.0378195187076925) 1 1984 1
(0.419184604194012 0.0310440352186578 0.442383748944851 0.10738761164248) 1 0 1
(0.146971939131621 0.440480564255265 0.201002518180758 0.211544978432355) 2 4 1
(0.385887017007916 0.0900170071981851 0.0542340977117423 0.469861878082156) 2 4 2
(0.114084767177701 0.460320554673672 0.138886519707739 0.286708158440888) 2 5 1
(0.0187832955271006 0.411172080785037 0.535151543095708 0.0348930805921543) 2 5 2
(0.158596982713789 0.231282742694022 0.191980979871003 0.418139294721186) 2 1280 1
(0.0118699613958598 0.441821009851992 0.3861951562576 0.160113872494548) 2 1280 2
(0.149988961406052 0.46128270868212 0.241680786013603 0.147047543898225) 2 1352 1
(0.372124310582876 0.0806540758348997 0.376252342946827 0.170969270635397) 2 1352 2
(0.488331836648285 0.438583924435078 0.0246321894228466 0.0484520494937897) 2 2006 1
(0.0330534228123718 0.0745185296982529 0.750001441221684 0.142426606267691) 3 6 1
(0.197087050415576 0.0899982163682591 0.226725845132022 0.486188888084143) 3 1281 1
(0.252039744984359 0.490844684187323 0.145014618057756 0.112100952770563) 3 1281 2
(0.239261800423264 0.48050961084664 0.0513224317692204 0.228906156960875) 3 2028 1
(0.0698223612271247 0.170507356990129 0.0433677593246116 0.716302522458135) 3 2028 2
(0.0307498727925119 0.236063874792308 0.584904222749176 0.148282029666004) 3 2028 2
(0.161547597963361 0.337375967763366 0.132537368219347 0.368539066053927) 3 4 1
(0.247083915863183 0.545482437592001 0.0877544875256717 0.119679159019144) 3 4 2
(0.267690659034997 0.00805790675804035 0.559679528232664 0.164571905974299) 4 8 1
(0.422689117491245 0.0326706818304957 0.131470400840045 0.413169799838214) 4 9 1
(0.245980365201831 0.165075721219181 0.317525283433498 0.27141863014549) 4 1282 1
(0.083454887382686 0.143001780379564 0.0581011655740435 0.715442166663707) 4 1282 2
(0.0831340644508598 0.224526165984571 0.495694970712066 0.196644798852503) 4 1396 1
(0.087940908037126 0.472016318701208 0.0985944243147975 0.341448348946869) 4 1396 1
(0.384891289286315 0.153460419736802 0.374796811956912 0.0868514790199699) 4 1396 2
(0.0501983547583221 0.383484954014421 0.106484440155327 0.45983225107193) 4 1396 2
(0.185299148783086 0.250628757290543 0.294071565382184 0.270000528544187) 4 6 1
(0.324218482244757 0.310727264732124 0.0600822605192661 0.304971992503853) 4 6 2
(0.192703960463407 0.45883378991857 0.133620472159237 0.214841777458786) 5 10 1
(0.0206486629322162 0.247443181462586 0.352087691891939 0.379820463713259) 5 10 2
(0.11363557819277 0.237683482002466 0.522257742006332 0.126423197798432) 5 1418 2
(0.134233288932592 0.706308714579792 0.0855595855973653 0.0738984108902514) 5 2072 1
(0.108680767938495 0.197888036258519 0.515723148826509 0.177708046976478) 5 2072 2
(0.168285169638694 0.052147066220641 0.516385454684496 0.26318230945617) 5 8 1
(0.129295041784642 0.127107726875694 0.298296107910574 0.445301123429091) 5 8 2
(0.00503462832421064 0.0415359968319534 0.152542181313038 0.800887193530798) 6 13 1
(0.0668220547959206 0.316100217867643 0.167670116294175 0.449407611042261) 6 13 2
(0.0882943104952572 0.214991300832479 0.675756298005581 0.0209580906666824) 6 13 2
(0.050970068667084 0.812941367737949 0.10490986192599 0.031178701668977) 6 1284 2
(0.179777498822659 0.307697529904544 0.457418942358345 0.055106028914452) 6 1440 2
(0.0436928379349411 0.211666234303267 0.200461324770004 0.544179602991789) 6 1440 2
(0.545385316945611 0.103333958424629 0.121530292090029 0.229750432539732) 6 10 2
(0.433903799857944 0.280340465717018 0.28036481142044 0.00539092300459829) 7 15 1
(0.158181263599545 0.318271100986749 0.106404589489102 0.417143045924604) 7 15 1
(0.348730377387256 0.388644455466419 0.240826890803875 0.0217982763424501) 7 1285 2
(0.501431146636605 0.00140522047877307 0.177688801195474 0.319474831689148) 7 1462 1
(0.142539389431476 0.308301830198615 0.304210232570767 0.244948547799141) 7 1462 2
(0.183235279284418 0.174360771663487 0.170799918938428 0.471604030113667) 7 2116 2
(0.296680450905113 0.170760308392346 0.21821348881349 0.31434575188905) 7 12 1
(0.265713381115347 0.0491401725448669 0.494407501071692 0.190738945268095) 7 12 2
(0.386827867943793 0.357315371744335 0.11635968554765 0.139497074764222) 8 16 1
(0.248267794959249 0.445460402872413 0.114017492625862 0.192254309542477) 8 16 2
(0.0132775250822303 0.0168706630356611 0.663971271365881 0.305880540516228) 8 17 1
(0.311034683138132 0.531200721394271 0.0186424939893191 0.139122101478278) 8 17 1
(0.199163926765323 0.172537023667245 0.0891712410375476 0.539127808529885) 8 17 2
(0.479394159745425 0.00364800682291436 0.31826938688755 0.198688446544111) 8 1286 1
(0.237675905693322 0.0892537040635943 0.485562215559185 0.187508174683898) 8 1484 1
(0.427283786237239 0.485292922239751 0.0185579168610279 0.0688653746619821) 8 14 1
(0.0308126737363661 0.0287046106532203 0.252339889295399 0.688142826315014) 8 14 2
(0.115491804666816 0.431597284507007 0.376363655086607 0.0765472557395701) 9 18 1
(0.256323257926852 0.687974059022963 0.0384104293771087 0.0172922536730764) 9 19 2
(0.174398823641241 0.376191035378724 0.0611756797879924 0.388234461192043) 9 1287 2
(0.161856207530945 0.226514665409923 0.581875604111701 0.0297535229474311) 9 1506 1
(0.505208469927311 0.188006428070366 0.207140993792564 0.099644108209759) 9 2160 1
(0.0484863184392459 0.335951189976185 0.383656058926135 0.231906432658434) 9 16 2
(0.469203369226303 0.0184360067360122 0.392506720032543 0.119853904005142) 9 16 2
(0.252537935506553 0.124346642754972 0.419322078116238 0.203793343622237) 10 20 1
(0.205385689623653 0.405732607934624 0.374243593774736 0.0146381086669863) 10 20 2
(0.00374683924019303 0.136244649067521 0.180591101292521 0.679417410399765) 10 21 2
(0.200832066126168 0.246833266224713 0.460514314007013 0.091820353642106) 10 1288 1
(0.173839054070413 0.412727827206254 0.0433108583092685 0.370122260414064) 10 1528 1
(0.00217407895252109 0.858736091759057 0.0777863119728863 0.061303517315536) 10 1528 2
(0.466839069500565 0.0191424577496939 0.035672088153661 0.47834638459608) 10 2182 1
(0.00188731914386109 0.027701284736395 0.151524490211159 0.818886905908585) 10 18 1
(0.233433992601929 0.0880293278023609 0.0975993829779327 0.580937296617777) 10 18 2
(0.330394200515003 0.102631512098014 0.295416973996907 0.271557313390076) 11 22 1
(0.0722506814636297 0.304230267647653 0.23206688882783 0.391452162060887) 11 22 2
(0.225853866897523 0.550606240052729 0.172767450567335 0.0507724424824129) 11 23 2
(0.132140375673771 0.542599012143909 0.0290399980731309 0.296220614109189) 11 23 2
(0.299666757229716 0.138921093195677 0.390907309949398 0.17050483962521) 11 1289 1
(0.456129043828696 0.14187413174659 0.273051540832967 0.128945283591747) 11 1289 2
(0.385503468103707 0.233093271497637 0.353600987698882 0.0278022726997739) 11 1550 1
(0.396924541331828 0.0114174121990788 0.140901435166597 0.450756611302496) 11 1550 2
(0.105963645968586 0.508442917838693 0.086165172047913 0.299428264144808) 11 1550 2
(0.0348408240824937 0.358903755433858 0.00337968952953779 0.602875730954111) 11 2204 1
(0.588402971625328 0.0269489916972816 0.322311155963689 0.0623368807137009) 11 2204 2
(0.0634732493199384 0.543845338746907 0.354767613112928 0.0379137988202273) 11 20 1
(0.0452340724878022 0.380790784489363 0.0759846637956798 0.497990479227155) 12 24 1
(0.00218051811680164 0.217877680901438 0.184312812518329 0.595628988463432) 12 24 1
(0.185595563612878 0.3874367531389 0.132863804232329 0.294103879015893) 12 24 2
(0.173646210227162 0.164859438315034 0.531015346292406 0.130479005165399) 12 25 1
(0.480239126365632 0.230401888024062 0.000588083639740751 0.288770901970566) 12 25 1
(0.0898474133573472 0.28781752474606 0.585124922916293 0.0372101389802992) 12 2226 1
(0.275693174917251 0.292213615495711 0.264011291321367 0.168081918265671) 13 27 2
(0.0165475751273332 0.520718936342746 0.264024651609361 0.198708836920559) 13 1291 1
(0.161651642527431 0.392905222717673 0.0738979247398681 0.371545210015028) 13 1594 1
(0.434631212148815 0.157428643200547 0.251123016234488 0.15681712841615) 13 1594 1
(0.271520818118006 0.468808379024267 0.0291602760553361 0.230510526802391) 13 2248 2
(0.176953887101262 0.528375230263919 0.092122682835907 0.202548199798912) 13 24 1
(0.127464566379786 0.0985056138597424 0.683472480159253 0.0905573396012182) 13 24 2
(0.34159652981907 0.160383183043451 0.489724641200155 0.00829564593732402) 13 24 2
(0.113238056190312 0.117423957679421 0.243288146797568 0.5260498393327) 14 28 1
(0.460603128187359 0.284924221225083 0.100646023172885 0.153826627414673) 14 28 1
(0.146241502370685 0.151092683896422 0.206168016884476 0.496497796848416) 14 29 2
(0.349224581383169 0.412256771698594 0.00758853740990156 0.230930109508335) 14 29 2
(0.407790749333799 0.504704065155236 0.0847893333993852 0.00271585211157938) 14 1616 2
(0.00288257421925586 0.563020902685822 0.170744715724141 0.263351807370782) 14 26 1
(0.210143371485173 0.0112923434935513 0.218142306897789 0.560421978123486) 15 30 1
(0.150040396489203 0.0892397966235875 0.75541737023741 0.00530243664979922) 15 30 1
(0.47345859138295 0.202514014672488 0.106159534305335 0.217867859639227) 15 30 2
(0.527855136897415 0.00228833546862011 0.202263721730561 0.267592805903404) 15 31 1
(0.0246899048797783 0.070592970121652 0.200875691138208 0.703841433860362) 15 31 2
(0.366353700403124 0.581297973636538 0.0315364375710486 0.0208118883892896) 15 1293 2
(0.565401071216911 0.196236005052924 0.094838032498956 0.143524891231209) 15 1293 2
(0.00945175532251596 0.349586522672325 0.462831179611386 0.178130542393773) 15 1638 1
(0.285348605830222 0.237610350828618 0.0243998039513827 0.452641239389777) 15 1638 2
(0.275927123613655 0.444554588291794 0.258092235773802 0.0214260523207486) 15 28 1
(0.158721036277711 0.0167019246146085 0.354609119240195 0.469967919867486) 15 28 2
(0.0194646618328986 0.161825339309871 0.243085503578186 0.575624495279044) 16 32 1
(0.152675887104124 0.0153262685053051 0.44834406580776 0.383653778582812) 16 33 1
(0.446822647936642 0.0198494861833756 0.447185972239822 0.0861418936401605) 16 1294 1
(0.0242797872051596 0.414650578983128 0.203495008870959 0.357574624940753) 16 1294 2
(0.229979032184929 0.567079466301948 0.198540844023228 0.00440065748989564) 16 1660 1
(0.195189884398133 0.0814279313199219 0.454455620609224 0.268926563672721) 16 2314 1
(0.579371356405318 0.0105884401127695 0.377179111819715 0.0328610916621981) 16 2314 2
(0.614536049310119 0.329474542755633 0.0447748401202261 0.0112145678140219) 16 30 2
(0.0549423401243988 0.0158401741646229 0.455652185250074 0.473565300460905) 17 34 1
(0.44723611837253 0.0575073640793561 0.362354165874421 0.132902351673693) 17 34 2
(0.205321693327278 0.591809545643628 0.126276774331927 0.0765919866971671) 17 35 2
(0.383544611278921 0.0207003648392857 0.579166648909449 0.0165883749723435) 17 1295 1
(0.242897943593562 0.61858306825161 0.0828170971944929 0.0557018909603356) 17 1295 2
(0.0370458313263954 0.350787457544357 0.184037019032985 0.428129692096263) 17 1682 1
(0.602545754984021 0.337596483528614 0.0492333001457155 0.0106244613416498) 17 1682 2
(0.00547503726556908 0.239587223622948 0.0781092597171664 0.676828479394317) 17 1682 2
(0.135645407717676 0.493476067204028 0.299317714758217 0.0715608103200792) 17 32 1
(0.224562504794449 0.51500122109428 0.223179364576936 0.0372569095343351) 18 36 1
(0.269833076745272 0.150982945691794 0.353009600192309 0.226174377370626) 18 36 2
(0.331522102467716 0.0024232035502791 0.572285771835595 0.0937689221464099) 18 37 1
(0.674796156585216 0.204220173880458 0.012151467613876 0.10883220192045) 18 37 1
(0.0784216788597407 0.508871531113982 0.408736256416887 0.00397053360939023) 18 37 2
(0.319282153621316 0.0607847315259277 0.0760705107823015 0.543862604070455) 18 1296 1
(0.16838554199785 0.0849290299229323 0.0638774982653561 0.682807929813862) 18 1296 2
(0.282754393760115 0.147069459315389 0.298238102346659 0.271938044577837) 18 1704 2
(0.240759124513716 0.15564629714936 0.240698483772576 0.362896094564348) 18 2358 1
(0.0819995128549634 0.659807375166565 0.0427660392597318 0.21542707271874) 18 2358 2
(0.101669392548501 0.347065555863083 0.19242100045085 0.358844051137567) 18 2358 2
(0.0289027015678582 0.129336239770055 0.708730476908386 0.133030581753701) 18 34 1
(0.709284584969282 0.174753364175558 0.055992379784584 0.0599696710705757) 18 34 2
(0.560512254945934 0.0647650356404483 0.0276776528917253 0.347045056521893) 18 34 2
(0.0275933588854969 0.592536517418921 0.337732335086912 0.0421377886086702) 19 38 1
(0.234801367856562 0.386694703251123 0.303433053195476 0.0750708756968379) 19 38 2
(0.0184303289279342 0.805923092179 0.110232356004417 0.0654142228886485) 19 39 1
(0.0412959228269756 0.275818629655987 0.564125359989703 0.118760087527335) 19 39 1
(0.137040254659951 0.101541828364134 0.0318933553062379 0.729524561669677) 19 1297 1
(0.294845899567008 0.177391762379557 0.428260365966708 0.0995019720867276) 19 1297 2
(0.354144074488431 0.220674167852849 0.166967355180532 0.258214402478188) 19 1726 1
(0.318907566834241 0.167961961589754 0.15116192214191 0.361968549434096) 19 1726 2
(0.250393516849726 0.433180336840451 0.176816848106682 0.139609298203141) 19 2380 2
(0.287917913403362 0.0594022106379271 0.473960336763412 0.178719539195299) 19 36 1
(0.295633819885552 0.389652747660875 0.0665650269947947 0.248148405458778) 19 36 2
(0.233286347705869 0.0781073048710833 0.184717315714806 0.503889031708242) 20 40 1
(0.0322533077560314 0.506315943785014 0.272303035482767 0.189127712976187) 20 40 2
(0.0117656379006801 0.0262591070495547 0.418440303765235 0.54353495128453) 20 41 1
(0.0284513314254515 0.829482858069244 0.0715997498482498 0.0704660606570543) 20 1257 2
(0.0519313998520373 0.601734045892956 0.0729076960124076 0.2734268582426) 20 1309 2
(0.181270213797688 0.360135227441788 0.1892786026001 0.269315956160424) 20 1963 2
(0.0589023157954218 0.0454996866174034 0.486979541368783 0.408618456218391) 20 1 2
(0.129478134214879 0.613294112030416 0.234195787459612 0.0230319662950929) 21 42 1
(0.300587361678477 0.193695044610651 0.139755186624827 0.365962407086045) 21 42 2
(0.0742412628605956 0.513593506067992 0.139440803322941 0.272724427748471) 21 42 2
(0.221613724250346 0.115779125131666 0.224462543148547 0.43814460746944) 21 43 2
(0.0246381438337264 0.410482596140355 0.227089313324544 0.337789946701375) 21 1331 1
(0.0264150728471577 0.138770346995443 0.359786968212575 0.475027611944825) 21 1331 2
(0.367871555499733 0.506820944137868 0.00804575067013509 0.117261749692264) 21 1331 2
(0.179926835000515 0.430525469593704 0.119309382047504 0.270238313358278) 21 3 1
(0.596005597151816 0.114075045567006 0.138081771787256 0.151837585493922) 21 3 2
(0.257869619410485 0.470949102658779 0.232506508938968 0.0386747689917684) 21 3 2
(0.43664401071146 0.0775841567665343 0.236074490938336 0.249697341583669) 21 40 1
(0.257975559681654 0.176487985998392 0.309534810949117 0.256001643370837) 22 44 1
(0.286330549512058 0.468281818553806 0.016724797897041 0.228662834037096) 22 44 2
(0.0441226684488353 0.470807200297713 0.270364701747894 0.214705429505558) 22 45 1
(0.585603944957256 0.249057081528008 0.0766980634070925 0.0886409101076433) 22 1353 1
(0.441134822554886 0.342380155809223 0.0253596617840229 0.191125359851868) 22 1353 2
(0.57621945021674 0.126474640797824 0.248623372055589 0.0486825369298458) 22 2007 1
(0.363889768719673 0.0410251412540674 0.464169724844398 0.130915365181862) 22 2007 2
(0.407953472342342 0.296122167725117 0.0999187687411893 0.196005591191351) 22 5 2
(0.136955289635812 0.358325181528924 0.362484713084996 0.142234815750269) 22 42 2
(0.412349972873926 0.173660222440958 0.0346339656971396 0.379355838987977) 22 42 2
(0.101121994666756 0.117372701875865 0.635579835157841 0.145925468299538) 23 46 2
(0.00265476433560241 0.442289071157576 0.393866637255997 0.161189527250825) 23 47 2
(0.0759187345393002 0.616082492750138 0.0468524880707248 0.261146284639837) 23 1375 1
(0.224622454028577 0.569332093000411 0.188620257191362 0.0174251957796511) 23 2029 1
(0.138717841822654 0.0113880992867056 0.676460226532071 0.173433832358569) 23 2029 1
(0.238393045496195 0.0440447265282273 0.109867720864715 0.607694507110862) 23 2029 2
(0.130356754176319 0.764807431027293 0.0673576593399068 0.0374781554564813) 23 7 1
(0.345829898491501 0.0561238829977812 0.468245057389141 0.129801161121577) 23 7 1
(0.0196611378341911 0.0357371247373528 0.89193751476705 0.0526642226614058) 23 7 2
(0.296165168285363 0.117456097155813 0.457300879061222 0.129077855497602) 23 44 2
(0.318133037537337 0.23624479630962 0.293749092612416 0.151873073540627) 24 49 1
(0.19368427619338 0.191269429400564 0.418446431867778 0.196599862538277) 24 1397 2
(0.291520554106683 0.0138131552375849 0.362793729640544 0.331872561015189) 24 2051 1
(0.0883877477608621 0.121643855236471 0.636518475599588 0.153449921403079) 24 2051 2
(0.154673966113478 0.208256212994456 0.175594101194291 0.461475719697775) 24 9 1
(0.0903239659965037 0.489982743281872 0.0112782837823024 0.408415006939322) 24 9 2
(0.173576407600197 0.189007233828305 0.491475745569915 0.145940613001584) 24 46 2
(0.404328561853616 0.0830053677782425 0.0132522708736369 0.499413799494505) 25 50 2
(0.367402281612158 0.422951803542673 0.146979502402246 0.0626664124429226) 25 50 2
(0.0256379083730284 0.410570392385125 0.462407730054111 0.101383969187735) 25 51 1
(0.0759144746698438 0.546854600310326 0.136663039214909 0.240567885804921) 25 51 2
(0.269026827067137 0.181742124259471 0.405691048596054 0.143540000077337) 25 1419 2
(0.326925213914365 0.241430950351058 0.418670147191734 0.0129736885428429) 25 2073 1
(0.25668404251337 0.349745830520987 0.312679387629033 0.0808907393366091) 25 2073 2
(0.165255127940327 0.0171758336946368 0.702341814991087 0.11522722337395) 25 2073 2
(0.63473105803132 0.221318709664047 0.132626968435945 0.011323263868688) 25 11 1
(0.0386163722723698 0.204109354875983 0.222689165733755 0.534585107117893) 26 52 1
(0.159858158323914 0.112516331952065 0.452287115622312 0.275338394101709) 26 53 1
(0.0175083805806934 0.0789634902030249 0.268730093259364 0.634798035956917) 26 1441 2
(0.404879931826144 0.275122571736574 0.0688489899039272 0.251148506533355) 26 2095 1
(0.0465097604319453 0.36529680993408 0.271120758727192 0.317072670906783) 26 2095 2
(0.027208426967263 0.0740849310532214 0.44957563560456 0.449131006374956) 26 13 1
(0.130254616960884 0.54838895983994 0.0272251935675736 0.294131229631603) 26 50 1
(0.145634072832763 0.0487778978422288 0.632965251803398 0.17262277752161) 27 54 1
(0.303640601690858 0.057030372787267 0.446793311275543 0.192535714246331) 27 55 1
(0.223316025920212 0.0874725650064649 0.339427637867629 0.349783771205694) 27 2117 2
(0.493938138242811 0.0122937713749708 0.169818360824139 0.323949729558079) 27 15 1
(0.68005533516407 0.0750972968526187 0.0751156685873877 0.169731699395924) 27 15 1
(0.257469675969333 0.0709948772564534 0.12507817428559 0.546457272488624) 27 15 2
(0.732014478649944 0.0535257887095217 0.00375536223873493 0.210704370401799) 27 52 1
(0.281617742963135 0.346187757328153 0.0371644790284337 0.335030020680278) 27 52 2
(0.461404518224298 0.159358709584922 0.348518465645611 0.0307183065451687) 28 56 1
(0.281549728941174 0.0557519989088169 0.0759012913331379 0.586796980816871) 28 56 2
(0.0339101385325193 0.0666944785043594 0.86731384275481 0.0320815402083111) 28 1485 1
(0.263298382051289 0.112768614199013 0.315495897084475 0.308437106665223) 28 2139 2
(0.211572231259197 0.552412446122616 0.128069920931012 0.107945401687174) 28 17 1
(0.623769962694496 0.095612038858235 0.164741092827171 0.115876905620098) 28 17 2
(0.451721508055923 0.374778305180372 0.0560915069654595 0.117408679798245) 28 54 1
(0.330473452806473 0.0124668837524949 0.267710438929498 0.389349224511534) 28 54 2
(0.0425738934427511 0.472101391293108 0.321056635584683 0.164268079679459) 29 58 1
(0.228035847656429 0.314358506351709 0.0172142265364528 0.440391419455409) 29 58 2
(0.274038472678512 0.269492562394589 0.372723398264497 0.0837455666624017) 29 59 1
(0.173394857440143 0.538791556842625 0.0775508107617498 0.210262774955481) 29 59 2
(0.00692008016630996 0.0657721296884118 0.687738758977503 0.239569031167775) 29 1507 2
(0.0919284648261964 0.406999100930989 0.327853080816568 0.173219353426247) 29 2161 2
(0.111566019244492 0.157800868619233 0.708003892563284 0.0226292195729909) 29 19 1
(0.328206694684923 0.159040309954435 0.384593338239938 0.128159657120705) 29 19 2
(0.231277316808704 0.318492627236991 0.178612617775796 0.27161743817851) 29 56 1
(0.517796517349783 0.382551489397882 0.0267344787716864 0.072917514480649) 29 56 2
(0.0362500012852267 0.794777003116905 0.0393410762771965 0.129631919320672) 30 60 1
(0.193409721832723 0.111981051508337 0.141305379103869 0.553303847555071) 30 60 2
(0.180961399339139 0.0170552693307401 0.458977477625011 0.34300585370511) 30 61 1
(0.148399440571666 0.0765775768086319 0.590517836622894 0.184505145996808) 30 61 2
(0.3762251958251 0.0658293338492515 0.448526168707758 0.10941930161789) 30 61 2
(0.265175757929683 0.00759172206744608 0.368517880328 0.358714639674871) 30 1529 2
(0.232070244383067 0.0219940170645711 0.220529161859303 0.525406576693059) 30 2183 2
(0.073267000261694 0.472531942650676 0.145052080973983 0.309148976113647) 30 21 1
(0.317634040955455 0.192860821727663 0.359183132182806 0.130322005134076) 30 58 1
(0.1772741866298 0.317346181720496 0.382831390947104 0.1225482407026) 30 58 2
(0.0499790944159027 0.468113586306572 0.269411828834563 0.212495490442962) 31 62 1
(0.120423864107579 0.120182362850755 0.087904796004295 0.671488977037371) 31 62 2
(0.0208851448260243 0.151840312872082 0.512955887708814 0.31431865459308) 31 63 1
(0.0517633659765122 0.349748179782183 0.584451867733151 0.0140365865081542) 31 63 2
(0.179702427703887 0.319366096053273 0.214826407842338 0.286105068400503) 31 1551 1
(0.00405931659042813 0.706363364122807 0.149488380644471 0.140088938642294) 31 1551 2
(0.331515958998352 0.313750916626305 0.215933736413717 0.138799387961626) 31 1551 2
(0.530453362036496 0.0625627296976735 0.2288735085167 0.17811039974913) 31 2205 1
(0.0657620113342998 0.0400663791224361 0.840572506655007 0.0535991028882566) 31 2205 2
(0.638856419827789 0.296483009122312 0.0487381075508884 0.0159224634990104) 31 2205 2
(0.0318929166533053 0.127313998062164 0.277171756606549 0.563621328677982) 31 23 1
(0.010860198177398 0.066796782892197 0.0519668003544208 0.870376218575984) 31 60 1
(0.303172855637969 0.0970426839776332 0.254605406429619 0.34517905395478) 31 60 2
(0.10828423500061 0.0680306381545961 0.376107251737267 0.447577875107527) 32 64 1
(0.460178675595671 0.267819887958467 0.0955044641159479 0.176496972329914) 32 65 1
(0.550985015463084 0.23022732604295 0.122225223574788 0.0965624349191787) 32 65 2
(0.529014547821134 0.105864570476115 0.143458819482475 0.221662062220275) 32 1573 1
(0.556496618315578 0.101542854681611 0.0392413120716812 0.30271921493113) 32 2227 1
(0.0393609646707772 0.837199114728719 0.107407564297319 0.0160323563031852) 32 2227 1
(0.0899937003850936 0.102222926914692 0.125609186477959 0.682174186222255) 32 2227 2
(0.0148878376930952 0.153616638388485 0.239886580966413 0.591608942952007) 32 2227 2
(0.191721721086651 0.424134973902255 0.267821238376201 0.116322066634893) 32 25 1
(0.225057087838649 0.107874805107713 0.114768192172051 0.552299914881587) 32 62 1
(0.046348685398697 0.475033124443144 0.16627949429676 0.312338695861399) 32 62 2
(0.149285564199089 0.19487587036565 0.509671052452177 0.146167512983084) 33 66 1
(0.532784827519208 0.256663045845925 0.0197171512991188 0.190834975335748) 33 1595 2
(0.47151832934469 0.28091084305197 0.190669136121869 0.056901691481471) 33 2249 1
(0.46587419975549 0.187372824177146 0.306753357406705 0.0399996186606593) 33 27 1
(0.0467206439934669 0.0265611913055184 0.39333235565573 0.533385809045285) 33 27 2
(0.0274756606668244 0.747622849885374 0.0304560530930757 0.194445436354726) 34 68 1
(0.240577057935297 0.567612579558045 0.154161709360778 0.0376486531458801) 34 69 1
(0.137473782990128 0.0195839027874168 0.815817961934954 0.0271243522875012) 34 69 2
(0.0570098632015286 0.259917620569468 0.100651756860316 0.582420759368688) 34 1617 1
(0.484274314250797 0.328572460450231 0.0474600442685187 0.139693181030453) 34 1617 2
(0.325614945963025 0.138728729914873 0.37057773815468 0.165078585967421) 34 29 2
(0.0577420773915938 0.472446303348989 0.433269905392081 0.0365417138673366) 34 66 1
(0.000293180812149685 0.257430416997522 0.158178998157382 0.584097404032946) 34 66 1
(0.310536246746779 0.512762681115419 0.0132002616301179 0.163500810507685) 34 66 2
(0.56789190787822 0.0564519548788668 0.177096854429692 0.198559282813222) 35 70 1
(0.0469520618207755 0.412774475757033 0.149084416683763 0.391189045738429) 35 70 2
(0.540271621197462 0.199856136459857 0.173556904308498 0.0863153380341834) 35 1639 2
(0.0283422260545193 0.272763218265026 0.67151851952076 0.0273760361596942) 35 2293 1
(0.342132538091391 0.358657648786902 0.0494565707631412 0.249753242358565) 35 31 2
(0.0798719497397529 0.472835737746209 0.181566484738142 0.265725827775896) 35 68 1
(0.345242493785918 0.158220609650016 0.0638751271180807 0.432661769445985) 35 68 2
(0.00190296955406588 0.614881504327059 0.326211185194552 0.0570043409243228) 36 72 1
(0.181953883264214 0.0261323805898428 0.233201088849455 0.558712647296489) 36 72 2
(0.270436758641154 0.169261309783906 0.474336179904639 0.0859657516703012) 36 73 1
(0.0116923954337835 0.0888361809775232 0.548486744984984 0.350984678603709) 36 1661 2
(0.252601213287562 0.144748797174543 0.146296801045537 0.456353188492358) 36 2315 1
(0.0333422599360346 0.328636839520186 0.437682572752237 0.200338327791542) 36 2315 2
(0.346779193729162 0.173769971355796 0.0841046245768667 0.395346210338175) 36 33 2
(0.398511195089668 0.430880168452859 0.00664730556309223 0.163961330894381) 36 70 1
(0.192076383158565 0.139665924943984 0.269232336897403 0.399025355000049) 37 74 1
(0.266941532492638 0.241204446647316 0.0609743106178938 0.430879710242152) 37 74 2
(0.0667096902616321 0.564536973368377 0.208142399787903 0.160610936582088) 37 75 2
(0.179756097961218 0.295614791102707 0.422588069923222 0.102041041012853) 37 75 2
(0.063463035505265 0.0166603745892645 0.38562279427424 0.53425379563123) 37 1683 1
(0.16843272652477 0.0203462131321427 0.205785369966179 0.605435690376908) 37 1683 2
(0.207838848233223 0.266066276933998 0.411077180411667 0.115017694421112) 37 2337 1
(0.110517863649875 0.0991058223880827 0.0413864697329699 0.748989844229073) 37 2337 2
(0.372731150593609 0.213831423781812 0.388769811019301 0.0246676146052779) 37 72 1
(0.258150776848197 0.238649873062968 0.0829384499229489 0.420260900165886) 37 72 1
(0.125064738094807 0.169991599395871 0.393101679161191 0.311841983348131) 38 76 1
(0.217008051462471 0.34899921528995 0.418037850875408 0.0159548823721708) 38 76 2
(0.226323074195534 0.717191271018237 0.00598465278744687 0.0505010019987821) 38 77 2
(0.4116644510068 0.063885699491948 0.450177075807005 0.0742727736942469) 38 1705 2
(0.0754561885260046 0.312029434833675 0.480505198705941 0.132009177934378) 38 2359 1
(0.707170915324241 0.0707648904062807 0.1146231116727 0.107441082596779) 38 2359 2
(0.0258637084625664 0.193483378738165 0.481704763602465 0.298948149196804) 38 37 1
(0.0903738578781486 0.178464141208679 0.218948557507247 0.512213443405926) 38 37 2
(0.286891392432153 0.189216068945825 0.0445588822476566 0.479333656374365) 38 74 1
(0.538945996202528 0.236252360511571 0.18751132953912 0.0372903137467804) 38 74 1
(0.0947805005125701 0.025363240391016 0.0540781356394291 0.825778123456985) 39 78 1
(0.593663816805929 0.0402896860614418 0.139246533624828 0.226799963507801) 39 78 2