/*--------------------------------*- C++ -*----------------------------------*\
  =========                 |
  \\      /  F ield         | OpenFOAM: The Open Source CFD Toolbox
   \\    /   O peration     | Website:  https://openfoam.org
    \\  /    A nd           | Version:  7
     \\/     M anipulation  |
\*---------------------------------------------------------------------------*/
FoamFile
{
    version     2.0;
    format      ascii;
    class       vectorField;
    location    "0/lagrangian/dsmc";
    object      U;
}
// * * * * * * * * * * * * * * * * * * * * * * * * * * * * * * * * * * * * * //


6177
(
(1817.60179509387 -354.977414224119 -211.104510115739)
(1993.60772660192 -42.5797235131849 135.209898552788)
(1408.44791150955 -98.2533736427583 321.218692240573)
(884.024318666228 -348.38067561418 -221.682219114811)
(1364.77681208262 -467.107040668701 -10.7347410335331)
(1505.08740732719 -230.403436290029 412.965215798663)
(1690.29249026232 409.272568673879 -353.872637932827)
(1502.33958339968 -267.149623011005 146.252520268057)
(2085.50976038047 154.96054945174 69.0865295255622)
(1789.40958913693 -118.439332877204 98.3029160320168)
(1503.80582726443 164.241825163425 -547.620958847312)
(1428.85721076545 296.096513437302 -20.9126924705055)
(1771.37011609116 265.270879809552 -188.635361387786)
(1435.92069770606 -403.574897821345 -17.0148740057744)
(1585.55049987761 -69.8918974612685 217.525731853941)
(1872.97868729293 -135.417759747778 -406.271497101547)
(1523.23984044524 139.857262140754 -161.461678790986)
(1781.5183534174 414.520518666272 -588.212591060485)
(1867.12143379155 106.421844926631 147.899226785766)
(1569.94595120433 307.281865884013 -209.91321464715)
(1449.9160073456 521.462859708167 -245.643144786313)
(2016.21574453399 -337.438155089261 22.4499211738263)
(1831.58898097229 -144.283918420456 -14.4791445253438)
(1928.43445695392 34.493867947027 109.406571517953)
(1860.7964659325 -157.237074490289 198.304769257468)
(1679.68544281917 -174.536120412257 -632.906708222382)
(2198.38149653667 412.657160536477 408.812470456625)
(1591.50143651485 92.7941815064019 -462.649429033392)
(1744.22019272828 329.931504678141 -93.8040152958003)
(2125.13325303352 323.093199007154 71.4396119771712)
(2118.65443371551 -18.2044963859175 -66.2018839166711)
(1971.92392350511 -471.148575930958 -204.502818321764)
(2102.48228429513 87.1212731082765 -23.8582211760804)
(2213.11780518781 23.4217190737485 182.705465872884)
(2001.69470463482 464.27397211738 124.782532583634)
(1457.0081279229 435.262769098003 -411.848746725103)
(1853.37396597975 197.78338384401 -78.0138328465554)
(1423.61817662502 -405.39910277158 276.27982321602)
(1413.85788777118 291.28516356351 -187.005979380538)
(1512.44153502947 -8.15301809872284 -189.958846492539)
(1754.41862896282 683.067045191337 36.7807117381568)
(1690.55421713607 54.2952781095759 116.920389624945)
(1417.09034680591 419.766502257265 124.836108087673)
(1853.65285897974 -743.513564746439 260.120806577439)
(1498.7941437797 -239.904408914294 91.2836294300318)
(2009.5969036955 54.7168775270677 -368.784505232323)
(1949.92543804546 269.342130897898 146.991271372297)
(2015.67044807631 -393.067687260508 445.533368552282)
(1463.56844020074 139.059529430816 -191.014077195667)
(1358.00884139263 -219.586188974434 474.994579310786)
(1602.93373305238 -290.592100349496 117.610488195267)
(1902.04126207564 470.760890478657 -511.927991117171)
(1842.10294131954 -2.56567651617248 -144.790571353776)
(1809.98127089095 44.6436177922747 -263.135101117627)
(2238.48880867044 435.145887564897 -15.4623092788714)
(1805.48148368135 11.6870354681229 -188.049398832189)
(1311.30197673627 -153.439316235446 180.349380616384)
(1664.6297069425 38.5525714763157 -398.265579409239)
(2174.44174033939 -84.5340543647425 278.974602795571)
(2095.78782428714 -234.753396458571 27.5098693262659)
(1413.21799947885 193.1730828545 -272.260905227562)
(1635.29495369187 164.987434639091 32.2699544766491)
(1776.64488189035 -131.596677266525 329.659366514305)
(1662.0601817141 57.0730390818981 -347.834914737269)
(1041.68979451638 -325.364456864522 201.53346108057)
(1602.63059169642 -471.849451661635 115.593728962102)
(1777.53051948868 72.3931775483851 120.594486744874)
(2074.90027645118 -207.067572616841 81.4801791629297)
(1745.83159366779 -32.8909345650449 -130.362661386931)
(1517.02944161632 -26.1337367710764 299.786174197683)
(1709.97814067865 16.3501079389329 -216.226823009469)
(1629.52350021245 -67.5151917565133 -58.1031876131218)
(2014.43593519747 43.2904230205357 -6.54805221901297)
(1823.55900328128 483.56103691473 -76.8397691044352)
(1297.56810145504 -212.307995886633 -209.191764261176)
(1671.86403358595 -20.6535757960713 -229.216847011697)
(1877.82954963925 -465.55573292873 -195.131463013734)
(2247.77264468037 -91.6444445055252 58.753895627111)
(1237.68751675139 145.301079845504 -175.282633687058)
(1609.27872981706 -259.744245604136 -454.469667151581)
(1435.38038265396 -177.200962895047 -495.358905004717)
(1992.75331586159 239.076222452935 -239.38481369971)
(1877.83388817376 299.097978677463 -658.967553098261)
(1828.37953774451 222.525416598193 240.08992630027)
(1344.95450619834 -201.354738771718 502.932541870615)
(1589.29916769327 -162.544304643707 111.175435382288)
(1486.70286881273 140.858450716955 -184.990219232479)
(1358.36991722059 7.16145045490419 -191.614352260847)
(2037.85633165402 -60.4653147576665 140.658254800971)
(1625.73376717589 -244.299375774228 328.852454572671)
(1831.48024051305 -345.746944940869 47.8766618353849)
(2053.36750690206 37.1115377906721 -514.759590450212)
(2072.0532065034 13.4817502461638 -422.715431364294)
(1553.84161747113 117.562371923492 397.611288110458)
(1768.87846758235 137.90627964135 20.3245386348394)
(1319.0427403998 -436.359045719029 70.3860525670342)
(1658.38977653929 457.777129158563 -110.337793676103)
(1532.92583783092 445.406412497981 -6.11529203179665)
(1288.33578925051 265.46906463087 -77.7412181505486)
(1615.59633139461 44.2287955745768 137.627837400043)
(1763.95997357626 -282.42568575629 -152.028542615685)
(1317.00214804811 -48.1747447600285 -110.355277524651)
(1589.49572539499 173.166919170095 297.996275535355)
(2462.03745080428 214.491624018503 364.222952814447)
(2499.95124356395 -246.953922763806 434.880397138147)
(1881.05823847854 404.826792573357 -21.5275497109513)
(1294.43487620666 258.722832603684 -210.068270914326)
(1918.64251356322 -88.914782373125 565.999573029239)
(1724.62371012223 365.196816780622 -82.6092117858948)
(1620.76317654226 284.378502454188 -24.6153153047244)
(1807.80173573924 -28.5616212296982 -86.0749707708053)
(1842.10263670053 309.095853749211 461.880145477356)
(1837.6180261117 371.664653555081 59.8833656179912)
(2142.05653913385 172.830157443384 495.291357153469)
(1806.84336338977 572.299153993091 -271.056723512812)
(1839.08054290174 311.479145717224 -113.775769684204)
(1501.16770818479 236.851373871521 561.1203574864)
(1583.91092454361 -806.794300815136 242.119481050087)
(1766.90147089089 138.266417098003 646.705319915685)
(1896.77447040105 -497.896785512421 30.8306515569873)
(1748.69942488761 -258.151063194172 -493.384037164985)
(1342.41214331033 328.141837045213 53.5872060607929)
(1408.88125733775 246.308515176172 -665.793717532305)
(2514.48415144588 -114.484705085671 -144.637367695946)
(1784.57520302615 -173.702335018288 270.830638056438)
(1844.76575687761 -208.642312415969 614.364190785224)
(1678.70352018246 180.308374950433 -52.0062864022439)
(1446.06291622317 -93.1769716144183 266.343115628537)
(1770.21935178453 895.901240519662 118.809701498432)
(1391.17579477078 29.4036114138336 352.163583263859)
(1889.19169462477 299.807657570334 -175.729888870004)
(1430.66977495587 -142.429086413578 -162.900634478657)
(1581.0552224681 119.511596583433 26.571333688638)
(1588.13161142459 -202.834275065985 18.3263129669677)
(1442.95608199236 260.656046086281 398.581010731172)
(1333.94471533933 196.384726505079 -3.01716784960881)
(1911.41679773801 432.583362223959 -109.907009213759)
(1995.45408217951 -323.620346491204 -200.643158781487)
(1616.27143955355 42.4526636210231 268.835755601994)
(1487.52180256736 389.39903324319 160.63797313208)
(1854.14270178715 388.004053785789 213.405935480973)
(1854.36090114502 -233.833817127417 -620.460630361575)
(1795.51797708653 -60.9460850500576 881.880259442844)
(1933.63441793117 -753.986979593046 -23.2371042848094)
(1797.74570038967 43.4409005346212 -11.6719578644229)
(1992.48190507081 17.7198830350886 -331.586938728831)
(2119.97178570829 -49.4413141494365 253.187410283607)
(1595.90483302598 -304.589666456585 -221.651806505858)
(1511.70490981437 190.169747667528 -161.945403205479)
(1555.52340417523 -35.2573615748963 -69.2733632921099)
(1356.40460096503 586.636635154654 53.2990767696805)
(1852.54905419354 27.9785134756549 605.014998361992)
(1840.85241292409 139.907259571921 -30.5399499200651)
(2180.77519402256 -308.125654095647 -121.486458800534)
(1854.77358804034 26.6597683476869 -809.961891596611)
(1558.92380690444 -3.73283069810577 122.76100773276)
(1465.3289165076 -146.951875150721 -221.160928187375)
(1043.36030341035 -365.292359484478 -89.5752112096313)
(1796.21511789125 -42.5641669062298 423.059757084547)
(1888.52236132453 71.4653554488304 -239.371444245322)
(1903.97020610382 52.8688361758956 465.942143139839)
(1933.90834396636 602.508805679238 -384.761205880443)
(2127.94590538209 398.946200540069 -459.571260807651)
(1668.55123590741 161.901996066482 354.685526777934)
(1169.94178984485 -183.602115695698 -253.78655583759)
(1625.77827406439 191.327473412043 213.87998728358)
(1388.97362395877 318.994569915504 70.9818779530187)
(2225.06861183375 -154.329153619437 375.227563275106)
(1566.882568781 280.408286549425 102.903966112896)
(1835.40511926089 -56.2872313533622 97.5176733829432)
(1984.76889381744 479.637588783087 -0.18215631927902)
(1270.92754426522 84.0495905545783 179.318263311739)
(1749.77852739297 24.271699964185 -84.9515191797948)
(1438.029315301 88.8942634212383 159.586923696618)
(1940.17330587097 -587.362542136546 -139.033388373423)
(2065.59195762143 618.514208870467 -45.4004003538117)
(1858.20709145181 80.2774151614971 -83.4865969995271)
(1748.6055409419 272.568070512357 -173.225813190438)
(2187.73792502524 18.6619728244957 10.7651325774536)
(1195.53280979689 125.20285796123 161.773394707517)
(2227.10227297816 -221.068235955139 586.041691125366)
(2010.454865312 -194.839174990705 -220.567048526297)
(1450.16335658198 -55.7930856797423 33.5674599403968)
(1520.0922497574 60.4005797485342 -559.620294587007)
(1653.04059777095 -88.1660813850391 344.912791669687)
(1571.15582991285 108.904295799898 61.7714592518234)
(2108.94495527428 280.133566334499 320.794017998218)
(1798.09804521047 237.511133964452 136.574772965257)
(1258.57860041811 -225.921854380989 -308.510186144725)
(1063.39126417982 -283.245856477015 -177.757370229269)
(1728.37836586809 -81.3882598016934 -233.6874860671)
(1590.90098874322 127.775768557401 151.459083556385)
(1429.01721919943 -512.92516048808 -160.167744580525)
(1359.79494128473 -68.8522723512459 -26.1856435237145)
(1710.60202425738 -101.228280435863 471.537363127659)
(1697.05768568015 -9.22886810048409 223.53924793594)
(1764.29948852461 896.80718977377 297.317716453736)
(1708.31532887073 408.677346395396 -244.713844913623)
(1631.30223388853 40.2981868288167 -355.698740862541)
(1968.38939242319 -6.24173237012327 108.686663262802)
(1505.49166976975 5.37317410007653 615.071941393345)
(1436.12691826884 264.055072362894 386.546499869714)
(1826.28432183614 270.319037358271 328.936705017586)
(1737.83486829356 -275.270314757831 -374.528044827964)
(2150.7514957705 26.7397081211548 447.997457086292)
(1768.1934847895 110.043901651599 201.488549805362)
(1753.88843979368 130.13862351 194.745650322609)
(2553.50493577912 -221.581604373678 166.225435765602)
(1383.68651189776 433.361877605834 -3.67682101978853)
(1748.23354767155 94.3832143547447 -82.3564622932864)
(1497.11792080526 -281.15317918158 -90.8016557121394)
(2020.79489062995 -248.047856876384 -210.449005001874)
(1673.07744838028 40.9796345498539 -88.421812905715)
(2098.58773016552 -4.72400729888879 211.814185721244)
(1519.96723760552 -193.225231575945 182.423804613725)
(1546.66706686852 303.022621255053 9.72509975313418)
(1655.38198337049 52.3083555969082 -65.9707864997466)
(2015.10277211128 398.365108037373 19.6754084492233)
(1420.59929193973 514.977886121267 -261.35092777395)
(2062.7409857134 -274.471755067354 211.904689355669)
(1930.32489089595 317.797602608323 324.990300100485)
(1917.7804421541 235.115725783906 -84.1029103291053)
(1728.51696302927 -275.20351249529 -52.2493263183776)
(1594.00224789004 114.164791259628 -690.127092229557)
(1938.8946357967 -194.785387077399 -556.493023483984)
(1891.6295586645 691.908298620203 -321.746646343389)
(1380.59063000543 -45.7556603009138 -5.5421037299511)
(1525.96819867729 -155.743565545167 158.580910655029)
(2012.4756941884 241.643682207244 -268.944272110527)
(1394.58355259658 -39.4635846570728 -230.590140175756)
(1219.96841032163 -167.316101433518 -343.174784841072)
(2125.42977474885 93.9428137164063 -0.511966040556893)
(1724.35477010364 -274.728934906864 -464.5888020318)
(1829.7949412698 -177.928437785077 10.2132391472917)
(2075.65488108535 512.44001176457 342.237075321428)
(1853.11943538247 387.99637754427 -232.25572335202)
(1366.40655900505 356.082757050157 100.155329943565)
(1542.60603371481 -115.981169081979 100.933241448763)
(2004.69742647653 -63.9744628133937 459.033443347244)
(1445.71450614178 16.6523549880776 -5.6478895984297)
(1660.82150202145 45.6056940921166 -468.155015466947)
(1577.82808948553 261.520377367731 187.02021569305)
(1939.57006721995 -74.780206137019 -111.591526122446)
(2003.47382324721 18.3424257808027 -644.788904820829)
(2182.51522495538 411.153211989406 -513.060988277132)
(1716.89385149878 341.185941398854 -290.157003594557)
(1569.45825502128 -16.042347318809 -477.578744929956)
(1874.79725717983 464.424389626531 496.631657694437)
(1763.53952174941 -352.472527263888 140.586005793734)
(1011.08113095912 -59.9849809201675 381.199678540681)
(2202.8259106174 162.155803477087 362.089280349612)
(2216.0830081718 187.079163452261 39.840652177823)
(1741.80921289257 -72.8051695724342 -141.46815373927)
(1944.47721307349 253.031701582737 101.126098447105)
(1245.68494599487 235.634122283538 -210.982017060191)
(1931.44974483011 161.123257186454 -52.47737080703)
(1990.41168858348 -135.557177149388 -142.792191669644)
(1835.24446103342 -78.2496520739645 -257.462184876423)
(1706.37786497476 64.2638450999569 36.9911392939794)
(1766.38285597875 -453.791027443013 -229.39255011111)
(1675.26476526224 309.28259102799 -226.563670190602)
(2218.31865421601 -49.6518596166187 -711.081892821722)
(1979.24541616341 -331.055718853776 566.588555596935)
(1825.94161684848 -556.814047634823 302.709569518782)
(1575.12451395845 -259.633433927692 -332.26160952066)
(2078.2354160756 -104.692370998549 -161.155826732631)
(1608.6732302388 -135.001677534682 459.089548063111)
(2389.89440806675 64.6249559566907 -139.898093994252)
(1516.85233047157 361.50818452885 157.90250427845)
(1944.98701076094 -291.548230419665 -205.417734343747)
(1991.34804696904 -229.808774612434 -150.153827550269)
(1825.55543442098 -13.6547075181925 -130.956342130105)
(1992.31359651977 -325.457896179839 -74.9191516341214)
(1719.69048839169 524.637164503808 262.382346073585)
(1601.6090508066 -328.815879731055 214.633320356033)
(1931.87375801053 438.344340133241 -423.130959140846)
(1799.49003089539 -48.0883652810291 270.174627368617)
(1549.30153550136 149.659052761325 -81.4684132227451)
(1497.13754615999 351.706908866205 -351.44510372674)
(1686.5220906847 274.8933994757 105.75296756498)
(1810.90856284144 -195.122044682792 418.213260172836)
(1453.67156918163 229.082832959317 157.142112593591)
(2423.11008221592 239.988234126403 -288.744003206978)
(1586.41987024867 691.477839373638 87.77426489434)
(1483.4362169631 -258.482474395799 587.619530038372)
(2082.67940145547 94.6601833722186 -258.571923050626)
(1589.3939739072 -7.99932635904864 -82.7185300232537)
(1770.54096888106 -33.9449618801374 223.329397711356)
(1683.94233655832 -429.01228655149 79.0651099244114)
(1731.89032029739 -28.172866161674 151.035487943065)
(1793.02510749002 136.541549879332 -380.385108218268)
(2047.62985900512 -399.566430073511 -34.1083973054452)
(2006.49018802445 199.521200210071 255.468444679034)
(1939.54523680232 -55.0426687653084 -509.983959626355)
(1334.76238194868 -26.4986833681595 107.372459978224)
(1930.91991889227 581.544422073279 117.097132976721)
(1458.26413827633 538.094234163999 247.753367733421)
(2237.67994375892 -189.341327348503 3.87436533548272)
(1544.12899242615 -987.528129400224 236.762125145513)
(1572.31064945116 111.941830189863 -488.976289873248)
(2055.20526204708 -377.445324392048 71.2370460393962)
(1849.81521946079 396.246316162622 -513.510116093475)
(1929.56526221831 -345.387162740572 -126.606766192609)
(1990.44315685264 385.483980214097 345.53387080429)
(2128.66934483684 -45.9526725503828 105.791456724542)
(1978.1060830694 -0.336517535832593 -203.220404374766)
(1914.50235120387 -199.852633373862 -355.775545110133)
(1654.52190710086 604.342608614948 290.419924348374)
(1784.80218285657 67.8790841017656 302.635729125802)
(1524.89877434082 557.562878642215 -579.077516347169)
(1494.45206095235 4.91420668038429 -93.6329415402365)
(1686.39467603643 -117.602364316269 373.420919364237)
(1401.22565177282 762.97550387933 495.722246852944)
(1878.40460308152 -279.049107177468 -269.000340602147)
(2068.33972789279 -149.137431456444 -502.693603645633)
(1699.17849407853 -140.696412842455 175.074047659493)
(1608.9986091703 8.93753711400411 17.8461455002871)
(1899.17591205746 -240.219108492952 6.63556541703494)
(1806.72916003674 -405.536365751251 15.3460290414909)
(1666.2239172001 -672.209123368871 -320.882517677032)
(1499.69534972229 441.179006327983 33.8116355760444)
(1541.46596705716 -112.143756785904 330.202164184145)
(1910.58902643368 317.399760741808 -273.742240356292)
(1600.36203570209 120.863480034992 -200.146826829334)
(1254.02868372905 72.0125962302125 126.270013085915)
(1850.67283085609 -659.196424085533 158.826440703518)
(1983.54474481252 -52.9976497314129 180.726063216861)
(1885.16250071301 -94.715928198725 448.27384114824)
(1984.35192043245 -205.294851463554 -83.7164855876139)
(1451.92670438738 211.754385233461 -148.325829151157)
(1793.14610006717 492.854066363225 -318.500075578945)
(1004.45794591353 -8.89828159750394 -206.147919932228)
(2209.46901207103 -479.123252694227 189.871509774968)
(1915.13698367117 -764.187944793232 -231.004924057869)
(1780.40396312637 22.1613288982081 115.821138888574)
(1745.46461228632 352.489917976715 -112.247797808251)
(1617.56780663665 -242.350857169619 450.423881407738)
(2146.31534845518 128.097417620408 -47.3490831042082)
(1959.28495930176 44.1039501933822 -24.6534371930056)
(2395.20758086305 -187.376016875872 240.408562152999)
(1540.2333725134 -165.490782121809 501.865657603479)
(1573.26369893207 -180.766937128276 179.943601564198)
(1664.21792445716 134.551963942251 60.518038935543)
(2047.92199236122 488.849146728725 68.0777827005545)
(2004.63862254581 444.529912856485 421.374191407203)
(1935.08441177719 -345.161735065234 -183.589379240012)
(1694.58956316294 -299.854942124925 -158.249508918422)
(1492.60657909953 -172.025031209919 -167.235221769625)
(1628.6447687344 -151.252779552242 352.232364744618)
(2021.60595448045 -6.68712935501843 -348.124948852558)
(1555.8270131659 218.403923241112 -167.529817776152)
(2073.90958757929 -20.8719811160412 143.707115242981)
(1840.70858132241 -118.649093690137 65.8350633582639)
(1430.0947158113 57.6836835867268 -39.401163874547)
(2108.6812981529 47.0178380241795 576.734179035674)
(1676.54867117208 -319.202879068378 13.2555768345566)
(1317.15750054727 -296.556792929477 -617.736707876656)
(1370.49034392097 -174.395174260269 -87.4807003121439)
(1340.84141546294 -62.8843273642 333.083986390897)
(2175.13729340868 103.334662929229 56.693165708211)
(1553.31714961554 -44.4461301595699 -457.06944393707)
(1625.8620519767 -209.261447045216 0.882027942067771)
(1122.645492877 453.175721065566 -317.418100532752)
(1720.01311262628 367.643411254168 225.754745982465)
(2188.30077812732 23.6667846069704 21.5790867109177)
(1540.24103873364 -346.931796757644 -12.3593490261113)
(1432.68641773754 22.3236767615844 113.931956733756)
(1259.80965638327 -69.1936641009833 376.300606670004)
(2061.7028605814 -131.875382401007 -302.633530022169)
(1906.81175988368 40.9615081335523 -125.088541594576)
(1721.37892275421 140.948767516892 256.67566813862)
(1318.45532734442 114.223544705714 302.388556121892)
(1947.02268066679 -153.818602728838 -67.8993582267381)
(2406.84036879123 49.3409450099176 -330.086114080466)
(2341.47549888312 -412.958332688666 -635.711653545261)
(938.052144269753 -136.734190169237 -621.135390563348)
(1502.83063619618 517.488666173636 -167.843154954445)
(1873.12724705882 392.870556848196 -322.810088207547)
(1584.238052184 299.305539533688 -1.6224029100735)
(2167.58492562425 300.753721846046 11.0276638074634)
(2190.76205527611 -552.391076532784 232.986055425219)
(1514.7206801379 -410.005562700168 322.680122858015)
(1455.73237716044 101.647831776547 243.903892720552)
(1742.60859628397 -260.308382214023 -266.777923414009)
(2118.86678899235 138.098317025167 144.855367500799)
(934.496756658146 -337.469682457472 -80.2337070859916)
(1870.21240161761 -184.15553310595 -73.9508086172051)
(1678.4514627762 -175.306940139437 190.161437758523)
(1959.18291735762 150.194990416327 -287.667453856842)
(1771.14143486959 279.445132679515 509.420827143119)
(2004.93038597554 -544.160774279024 148.075057814506)
(1630.53077181838 -300.686340173061 -16.4488185873256)
(1714.5793702306 322.594875173558 -162.91039402893)
(2314.16859977034 -453.542360202526 241.474193406023)
(1690.82422602985 -118.009004778909 326.79998347698)
(1641.14140059187 -9.3221373618282 158.407242065292)
(1686.76843910206 329.88163159402 -52.4284282571804)
(1829.73671203045 131.454834716475 55.368932182524)
(1622.03941272962 181.919155849854 -67.6494389101893)
(1955.97575544362 -305.115370524182 -49.9897771295326)
(1115.20603700807 -527.118544787654 233.115815675683)
(2101.11951976667 -80.2651439258549 99.3919757102113)
(2003.89608450467 -67.8758357296821 -322.383888346267)
(1835.19321940093 169.328030638874 56.5690646916328)
(1469.58446056763 227.602808735495 -551.246222162326)
(1854.52793568496 12.6513594316596 -273.059207018173)
(1352.99032604968 88.4778718560357 594.342055521428)
(1588.54554464803 -111.811970344799 46.8745040964081)
(1564.22637230252 114.693378217393 190.531215610203)
(1939.44754827251 -201.296743720575 292.870663859754)
(1317.9670310585 199.81663003049 -482.92809508833)
(1802.23758328131 -58.7723753139841 554.109669150608)
(1932.38300749156 -67.8251756454367 -110.485962990615)
(1287.14193448545 121.440306293548 -387.730737631892)
(1603.9238359979 -185.713074590823 364.16524480295)
(1725.97597507713 -87.3457663608613 28.071212886456)
(2519.89250264666 -198.304335601114 372.093690810669)
(1645.29546933004 -196.252817595961 -248.090793942306)
(2244.22140547678 -127.974995323797 -479.348505373082)
(2009.72461253222 195.47065109501 322.014989657172)
(1565.05244722543 -109.960752573779 -572.861296187972)
(1748.18739068531 47.2217980371213 -236.329230099896)
(1908.7422537712 -177.219757018268 -27.4476058286166)
(1645.32585608124 483.333574584853 355.894506404399)
(1925.44726586319 -574.196532336962 428.764166603553)
(1284.88000598006 -512.047057364197 -192.528356797001)
(1532.52108949439 109.194009481821 111.799207823656)
(1606.16694418155 371.558400954227 -489.425679940125)
(1450.93717758546 608.005836792038 -212.188565734829)
(779.165687672163 74.3166578765391 -155.954848430264)
(1826.09674484573 61.9153946668809 151.719601605946)
(1155.72574838592 -301.939221465998 -371.397702212742)
(1525.05512396147 -59.5343381303309 -248.485048224402)
(1455.37775885781 177.216490362746 -472.553081811078)
(1936.19884248528 83.8733031985294 -77.5151937062862)
(1945.47165761301 -424.551904638236 56.6081566910856)
(1443.7573744608 -522.246968620043 -230.074467633213)
(1588.48696046796 -189.131688674107 -207.56133988741)
(1366.53721908833 -202.562433195837 127.293927888609)
(2006.77081687173 305.028707261671 -226.932644360604)
(1843.22850753861 282.51652026402 192.553569976133)
(2114.95093499839 579.027076809954 -159.600563214169)
(1232.2257436836 -218.998381354327 74.1129050063676)
(1484.4244759327 -3.3629205789984 207.213143479901)
(1523.20388527583 -638.112681603133 149.41677961313)
(1657.315326808 108.106314189759 -303.959136833801)
(1612.54194355604 -247.337405546126 -22.7278624360917)
(1730.15626985664 234.767985683448 -93.3887616020397)
(1878.58441625484 -135.58179412444 -488.815901130032)
(1431.97412959722 -311.369347283819 -153.488573334293)
(1818.04960057478 -120.549140912235 81.1982815750076)
(1592.22550690651 760.897902185977 46.4331681241219)
(1869.61022285722 -109.9774641097 73.3027020403272)
(1752.75470591561 -26.9061060048083 -251.324037749134)
(1192.40749440167 710.871491148769 73.7435717202761)
(1980.98753236693 128.373929122842 91.9331390378687)
(1275.69487303448 -624.925826913912 -311.389232248381)
(2038.15104912322 224.669345995295 -130.9628638252)
(2067.00730383763 253.841619674495 253.42919597343)
(2126.10100500008 54.7325618472374 -136.371569106448)
(2073.6547840618 355.717376954022 198.273281925742)
(1498.53147468167 -21.234794604767 -346.727720763665)
(1671.87444019487 390.65617409882 -47.8142606895789)
(1251.67615767869 -289.205945360858 176.636297884999)
(1931.15737318425 -449.188890449762 94.6637137966369)
(1545.83935195082 -86.3639302905655 -465.692783836598)
(1648.08599572964 278.523429350319 -123.790125472405)
(1637.13059251139 81.1533709437932 -108.233983456598)
(1676.6159132006 355.815822172203 -535.328905498377)
(1318.39928621352 124.005011011843 -193.800599528248)
(1897.02176509196 365.181039872252 -162.143311545817)
(2021.122190823 162.141426853221 -44.2255242290466)
(2071.76354409591 -416.43483962812 -58.5773182763688)
(1950.66279584655 -359.201858180618 162.305507785648)
(2029.17753333613 195.346997795881 -59.5127121172588)
(1446.32692056911 497.567841582638 536.570107200056)
(1903.34317444861 427.635942770963 -118.927005615526)
(2007.14638552661 -344.277965310219 -50.4530906701278)
(2279.08562038815 -671.887637682482 -238.587493570287)
(1653.86634181216 -299.68333828066 171.65061879549)
(1898.30251712549 -433.44608367074 9.28695783073297)
(1359.84507729669 645.597410411743 -32.7280590272087)
(2221.11375544026 -184.213026824495 193.296566693631)
(1574.23229767956 54.6170387151293 178.640794602042)
(1889.77566163388 -189.049146216527 174.558751106485)
(1631.28059229102 -490.747269474918 283.25792713951)
(2295.56629609497 35.981660467071 -275.525187806702)
(1382.27464931178 -199.92780785058 -193.047948411439)
(2255.26363857449 -56.184059330069 497.760314421365)
(1911.30349217838 242.101313055338 114.689569169991)
(1609.52803718403 -77.5906678468721 268.02682382981)
(1158.22718331134 -528.54823801719 -223.358836191151)
(1977.65314076447 54.6549975393048 -91.4268312763943)
(2045.42414930324 -42.3442098281734 921.154647267662)
(1643.25919761716 -26.3690290156226 -624.69781688491)
(1926.8517016652 162.824768377136 403.881200818176)
(1740.48587601502 330.493954905536 -257.711247392357)
(1845.3275467389 20.4916394454383 -266.793155700939)
(2028.19332059246 136.091859335433 219.983074146035)
(1978.77004262411 78.4182124766356 -28.6141150127724)
(1424.23424936805 221.932874862603 -105.679211821396)
(1606.2777497916 126.483206061321 -330.705471417523)
(1829.98523592615 53.8699173161926 -113.083304192694)
(1702.53581887953 749.253860457826 110.891949751903)
(1719.93658570235 367.864168358427 272.628485346684)
(1502.14285323452 -103.933231332236 -64.7930765551508)
(1843.65854247858 42.931479162229 292.589058508695)
(1902.78948660907 215.895381245593 188.314050205334)
(2153.16587771868 -476.754873757143 8.43224533234767)
(2493.74709911394 488.823160346139 89.8663947003003)
(1178.57636223785 198.561659173194 459.828698154206)
(1550.09284547892 420.735778294342 432.858330809453)
(1224.77074479218 -202.605161856153 258.589134106123)
(1737.91645582044 337.321458766185 121.022955705319)
(1794.43211456471 22.9588265496122 74.9427849645453)
(1515.71789402013 -436.38252615554 -293.443887716812)
(1737.93812142031 -115.513094915193 -218.902555804351)
(1324.35304776703 -144.28567086387 4.90983663451193)
(1752.30566712958 213.799360878315 -6.46354803257398)
(1451.32257118243 -31.3194136562094 47.8134885295464)
(1443.05214183021 -106.5976467873 -75.9853120576417)
(1697.8507681047 -100.440710665285 142.697042672911)
(2066.23988525455 -205.536049499466 227.547597558987)
(1550.74148797471 -7.40960926370582 -523.579079980391)
(1546.31881013544 174.97133654294 -111.346545405756)
(1356.55813802625 -49.4846693527242 -13.7055443573996)
(1643.7314583206 125.385306135178 365.723508225723)
(1984.55216532073 -378.7087653044 -106.576826824574)
(1697.5708406228 -127.352403437466 -102.900423977511)
(1530.85387072308 250.546019249409 -176.420803692186)
(1778.13651431402 49.2731603009384 -89.275112034864)
(1631.35106569866 -8.6590313760307 -27.2946670726254)
(1750.18237362707 -320.387066947853 -295.512147456562)
(1561.78629390918 138.435730365426 76.7896207700872)
(1624.85187441383 -342.043524366118 -121.081267537269)
(1684.08497723105 -239.273442358235 82.7246582533445)
(2147.18962330289 -7.03372497829781 728.885452680426)
(2417.50506320854 75.7551264340962 137.413480309929)
(1599.02093795834 145.504846533555 180.339364392824)
(1935.70377104349 240.810629098304 -323.735016673565)
(2029.74835039646 -278.332582278739 306.502982239128)
(1562.71104243713 193.202235816888 513.116768080109)
(1010.20313407665 92.1104641383698 240.936975650843)
(1834.69019794529 488.117342251552 -50.0554007503406)
(1666.73881344355 -156.454511694735 -214.584593453795)
(2516.96273431891 1199.41099582244 143.624401251428)
(1587.61726518218 114.531692571762 178.93387008704)