/*--------------------------------*- C++ -*----------------------------------*\
  =========                 |
  \\      /  F ield         | OpenFOAM: The Open Source CFD Toolbox
   \\    /   O peration     | Website:  https://openfoam.org
    \\  /    A nd           | Version:  7
     \\/     M anipulation  |
\*---------------------------------------------------------------------------*/
FoamFile
{
    version     2.0;
    format      ascii;
    class       scalarField;
    location    "0/lagrangian/dsmc";
    object      Ei;
}
// * * * * * * * * * * * * * * * * * * * * * * * * * * * * * * * * * * * * * //


9220
(
1.36695e-20
4.22954e-21
2.60031e-21
4.71384e-21
2.43396e-21
9.10973e-21
1.25776e-20
9.01551e-22
9.21196e-22
3.25954e-21
2.32655e-21
2.02043e-21
1.20241e-21
7.99804e-23
1.92047e-20
3.20719e-21
3.59221e-21
2.64458e-21
2.24156e-21
7.1994e-21
7.17027e-21
4.32924e-23
3.4216e-22
1.46725e-21
2.26692e-20
2.54808e-21
6.23766e-22
4.69165e-21
1.33087e-21
3.98828e-21
2.62618e-21
6.47062e-22
1.85914e-21
1.69603e-21
4.81841e-21
1.16213e-22
2.46499e-21
1.65561e-21
1.16652e-20
8.75559e-22
2.92332e-21
4.37059e-21
9.49364e-21
2.19704e-21
6.62176e-22
9.73092e-22
2.1957e-21
9.45249e-21
1.7067e-21
3.20445e-21
4.56977e-21
1.35085e-21
6.81083e-21
6.40024e-21
3.87777e-21
7.5233e-21
1.1892e-20
7.32866e-21
8.20884e-21
1.1861e-21
3.28084e-22
1.85989e-22
4.76434e-21
6.22784e-21
3.44859e-21
8.38632e-22
3.85071e-21
6.99495e-23
1.87811e-21
1.51863e-21
5.80391e-21
1.10911e-21
5.20825e-21
1.98148e-21
7.74789e-21
1.31e-20
3.39793e-21
1.69375e-21
1.14632e-20
6.96027e-21
4.48445e-21
1.2851e-20
4.9601e-21
4.26633e-21
1.9375e-21
2.93429e-21
8.23632e-21
2.71573e-21
4.4076e-21
8.43735e-21
2.15267e-21
5.55436e-22
2.32108e-21
3.08074e-22
3.88433e-21
1.13366e-20
3.86902e-22
5.43174e-21
6.15775e-21
4.17339e-22
5.02093e-21
2.05069e-23
5.05691e-21
5.3049e-21
9.78636e-21
1.36561e-21
2.45152e-21
4.07766e-22
2.41185e-21
1.21553e-20
8.55916e-23
1.43072e-21
8.04177e-21
3.29003e-21
7.44067e-21
2.20706e-21
8.58398e-21
1.18703e-20
9.91256e-21
7.74716e-22
2.99505e-21
1.103e-20
1.60878e-20
2.86418e-21
1.68142e-22
1.13696e-22
3.34956e-21
3.30002e-21
1.11422e-20
7.59604e-21
1.22583e-20
5.82086e-21
1.81567e-21
9.42068e-21
9.87421e-21
7.12062e-22
3.74625e-21
5.40255e-21
5.30921e-21
9.76518e-21
2.21216e-21
3.80068e-21
1.54243e-21
5.03591e-21
1.04383e-20
2.05566e-21
5.35322e-23
1.4423e-21
1.79018e-20
1.43647e-21
8.80704e-21
7.12623e-21
1.11568e-20
5.55104e-23
5.81358e-22
3.62116e-22
4.45483e-22
4.34041e-21
1.48349e-21
7.37092e-22
1.32272e-21
2.5903e-22
3.96012e-22
9.00836e-21
9.12623e-21
1.11862e-21
4.75578e-21
2.73896e-21
5.14478e-21
1.0527e-20
2.85494e-21
5.54056e-21
8.97967e-22
6.51601e-22
7.37447e-21
2.38741e-21
1.5427e-21
1.66867e-21
3.42358e-21
5.5479e-21
2.87149e-22
1.62718e-20
1.12935e-20
1.29053e-21
3.49866e-21
3.16954e-21
4.05514e-22
2.4159e-21
2.12865e-21
6.82038e-21
1.36807e-21
4.84994e-22
1.17886e-20
4.31746e-21
1.43459e-21
7.5337e-21
1.24956e-21
5.62387e-22
5.23076e-21
3.07851e-21
7.62936e-22
2.49611e-21
7.90992e-21
4.57761e-21
3.87901e-21
7.84196e-21
1.8547e-20
1.07763e-21
6.30981e-21
8.18065e-21
2.54971e-21
2.39429e-21
1.94493e-21
8.6239e-22
1.38664e-22
3.50611e-21
8.78572e-22
7.87194e-22
2.67973e-21
2.77121e-21
2.49202e-21
2.69414e-22
4.67087e-22
4.6109e-21
4.36781e-21
6.45187e-22
6.04316e-21
3.68895e-21
6.90484e-21
5.49409e-21
7.29732e-21
8.12541e-21
1.48349e-21
1.9122e-20
8.88398e-21
8.53425e-21
6.60614e-21
2.36028e-21
8.36758e-21
8.99418e-21
2.57474e-21
5.35933e-21
1.59032e-21
2.29719e-21
1.08242e-20
1.21227e-21
1.45619e-21
7.48064e-22
3.78894e-21
5.274e-21
3.28319e-21
3.49614e-21
2.00242e-22
2.1286e-21
3.8808e-21
4.66898e-21
1.12014e-21
1.71206e-21
4.79229e-21
6.0127e-21
2.05324e-21
2.00632e-20
2.48979e-20
2.92903e-22
7.43225e-23
1.01768e-20
3.61214e-21
3.32727e-21
2.29233e-22
3.49217e-23
8.31753e-23
2.1399e-21
8.29148e-21
2.98066e-21
2.64742e-21
1.79272e-21
3.44216e-21
5.09022e-21
8.80399e-22
4.20827e-21
7.04689e-21
3.29209e-21
4.60227e-21
3.90584e-21
4.43746e-21
9.44171e-22
6.61455e-21
1.00937e-21
2.10661e-21
5.24149e-21
2.5469e-22
2.32614e-21
2.85812e-21
4.20857e-21
1.90634e-21
5.18977e-21
1.14934e-20
1.18637e-21
2.72403e-21
3.41557e-21
9.93549e-22
8.25029e-21
4.14022e-21
1.25764e-21
7.58677e-21
2.04267e-21
6.21413e-21
1.1106e-21
8.02714e-21
6.2289e-22
6.07447e-21
4.94758e-22
1.28471e-21
1.96177e-21
8.72257e-21
4.84588e-21
5.78293e-21
8.3072e-22
1.45319e-21
4.34729e-21
5.62791e-21
1.0335e-21
5.60684e-21
1.55053e-21
4.97304e-21
7.35403e-22
8.22548e-21
3.57242e-21
1.27714e-22
2.22752e-21
3.05386e-21
5.50576e-21
9.26161e-21
3.06242e-21
1.20004e-20
2.99001e-21
3.21208e-21
6.07916e-21
1.02254e-21
1.95542e-21
6.7123e-21
2.53608e-21
6.09883e-23
3.59983e-21
5.73184e-21
4.82859e-21
4.88338e-23
6.55386e-21
5.42394e-21
2.8108e-21
9.96454e-22
4.66447e-21
5.03674e-21
2.18099e-21
1.2587e-21
8.11324e-22
2.35878e-21
1.27397e-21
1.63127e-21
1.03074e-21
4.6577e-21
4.42721e-21
1.09688e-21
2.59485e-21
7.23067e-22
2.67983e-21
5.20579e-21
9.19578e-21
1.72886e-21
1.08702e-21
7.33459e-22
1.77975e-21
3.30526e-21
6.93433e-21
6.58829e-22
2.75899e-21
3.64739e-22
2.59212e-22
3.88305e-22
2.61812e-21
4.208e-21
4.27868e-21
5.54453e-21
1.44483e-22
2.78351e-21
7.23574e-22
1.40724e-24
1.73642e-20
3.67263e-22
5.2796e-21
3.79285e-21
1.03534e-21
8.7831e-21
1.66662e-21
3.6777e-22
3.65819e-22
1.07779e-20
6.45873e-21
3.04264e-21
6.80096e-21
4.14498e-21
1.84296e-21
5.32334e-22
2.88845e-21
7.66332e-21
4.046e-21
6.31971e-22
4.91217e-21
7.2753e-21
2.39145e-21
2.52011e-20
3.75982e-22
3.75946e-21
5.04223e-21
1.10029e-20
6.93326e-22
8.07415e-22
4.3279e-21
1.04541e-21
5.2474e-22
5.87948e-21
3.72354e-21
8.90709e-21
3.32695e-22
1.97785e-21
2.49531e-21
2.27651e-21
5.72326e-22
4.25464e-22
4.08239e-21
4.54795e-21
5.7413e-21
3.60549e-21
8.89777e-22
5.11439e-22
6.44392e-21
2.51405e-21
1.77708e-20
1.66548e-21
3.64058e-23
4.72132e-24
2.51478e-20
6.03632e-21
5.57206e-22
3.00518e-21
2.28551e-21
4.78366e-21
3.75735e-21
3.1047e-21
5.13394e-21
4.82835e-21
1.25646e-20
1.47915e-21
2.36029e-21
2.88333e-21
3.37003e-21
6.15404e-21
1.46802e-21
1.21705e-20
5.55808e-21
1.23699e-21
4.94691e-21
8.87496e-21
6.59462e-22
1.78154e-20
9.613e-22
7.20517e-22
1.83953e-21
6.2413e-21
4.08699e-21
1.34387e-21
1.81399e-21
5.83783e-22
6.40638e-23
4.3114e-21
3.61432e-21
7.15808e-21
4.90439e-22
2.7067e-22
1.4435e-20
2.66143e-21
1.33304e-21
2.27343e-21
5.65172e-22
5.53838e-21
1.08541e-20
3.8907e-21
4.62049e-21
5.1923e-22
7.90176e-23
1.65065e-21
6.20012e-22
3.97038e-22
7.4294e-21
8.92653e-21
5.391e-21
6.81946e-22
1.23929e-23
7.26961e-21
2.14133e-21
3.92598e-21
5.633e-22
1.42195e-21
7.76311e-21
9.37534e-21
1.93472e-21
6.15271e-22
1.37174e-21
2.46644e-21
2.76414e-21
1.2043e-21
2.95382e-21
8.93031e-21
1.3933e-21
1.21258e-22
7.67905e-21
5.56325e-21
1.32936e-21
7.30748e-21
2.03548e-21
1.64503e-20
1.39826e-21
4.39808e-21
6.45111e-21
9.45056e-22
1.52335e-21
3.14989e-21
1.53001e-21
6.03221e-22
9.72771e-22
4.71273e-21
6.1875e-22
9.73136e-21
3.37572e-21
3.37891e-21
2.04126e-21
7.2852e-21
3.53605e-21
2.06595e-21
4.39422e-21
7.24302e-22
4.25547e-21
2.77925e-21
2.78523e-21
1.93238e-21
3.81881e-22
1.12479e-21
1.23948e-20
8.88114e-21
2.30814e-21
5.20691e-22
5.96244e-21
1.93344e-21
4.54975e-21
4.72328e-21
4.74267e-21
8.29335e-22
6.10894e-22
4.0291e-21
6.99563e-21
1.49533e-20
2.20052e-21
4.13464e-21
1.16566e-20
2.61408e-21
2.20087e-21
9.85408e-21
6.1112e-21
1.51539e-21
4.21468e-21
1.13318e-21
3.78096e-21
6.25381e-21
8.66359e-22
2.77326e-21
5.91929e-21
1.59424e-20
6.37016e-21
1.52237e-20
1.2272e-21
5.70984e-21
1.78447e-21
5.00585e-21
3.93505e-21
1.61792e-21
2.2513e-21
3.64032e-21
8.43517e-21
3.24544e-21
1.96702e-21
1.20045e-20
1.37377e-20
1.73158e-20
1.21733e-21
8.66862e-22
1.77451e-21
9.15499e-23
1.17422e-21
3.34928e-21
6.61127e-21
1.1207e-21
5.66867e-21
3.41679e-21
3.35794e-21
5.79264e-21
1.94007e-21
1.0537e-21
4.3052e-21
4.10227e-21
5.89397e-21
8.06448e-21
6.52691e-21
4.42555e-21
2.20811e-21
4.42612e-21
1.37872e-21
3.68332e-21
1.45554e-21
1.20874e-20
2.43249e-21
7.7271e-21
2.76736e-21
2.9191e-24
3.48223e-22
1.14376e-21
3.85589e-21
1.25781e-20
4.99099e-21
2.25087e-21
4.26707e-21
3.48626e-21
4.15728e-21
9.64672e-21
8.34313e-21
2.75524e-21
3.48978e-22
7.63795e-21
6.97896e-22
1.86049e-22
1.48883e-21
4.84363e-21
2.8075e-21
4.6224e-21
4.75331e-21
1.58513e-22
4.95912e-21
4.03544e-21
1.66653e-20
3.66263e-21
3.74456e-21
1.68062e-21
2.66391e-21
1.49484e-21
1.40819e-21
1.25632e-20
3.68757e-21
5.01969e-21
3.02579e-21
2.19615e-23
2.19326e-21
3.50942e-21
3.42503e-21
3.19814e-21
1.3293e-21
3.46043e-21
1.44359e-21
1.39137e-20
4.0495e-22
5.66282e-22
1.17716e-20
2.39547e-21
9.82241e-22
9.94753e-21
6.78342e-21
6.89423e-22
7.03002e-21
2.72651e-21
4.20038e-21
8.14382e-21
3.79911e-21
5.98992e-21
4.09568e-22
5.99729e-21
1.25886e-21
3.40142e-21
1.70736e-21
5.25926e-21
1.04583e-20
1.01915e-20
4.17091e-21
3.52106e-21
3.25439e-21
4.9488e-22
9.47182e-21
1.90348e-21
7.15234e-21
5.50029e-21
2.67761e-21
8.84144e-21
2.42369e-21
5.89096e-22
1.13183e-21
1.91821e-20
2.14022e-21
1.63723e-21
3.52952e-21
3.77789e-22
8.16942e-21
2.68487e-21
1.04226e-21
1.50727e-22
3.11318e-21
7.67986e-22
4.22142e-21
2.67842e-21
2.54836e-21
6.38545e-21
1.2054e-21
1.24688e-21
4.11984e-21
2.52963e-21
8.44922e-22
9.44897e-21
1.79848e-22
1.40002e-21
3.81262e-21
2.21367e-21
1.35636e-20
4.53426e-21
7.05995e-21
2.00703e-21
3.24091e-21
9.785e-21
2.74647e-21
1.3127e-20
1.95783e-21
1.26751e-21
1.66105e-22
5.88169e-21
1.06343e-22
2.17162e-22
7.70198e-21
2.00646e-22
4.59394e-21
4.92481e-22
1.00194e-20
8.40657e-22
9.31558e-22
3.13416e-21
2.45972e-21
3.38902e-21
9.63752e-21
1.72282e-21
5.48976e-21
1.954e-21
9.95592e-21
1.84013e-21
3.54648e-21
5.41509e-21
4.14297e-21
3.32101e-21
4.74996e-21
1.49374e-22
4.21674e-21
9.40854e-21
5.16975e-21
6.90757e-21
7.38733e-22
8.62283e-21
2.36283e-21
1.48813e-21
3.00944e-23
2.23003e-20
2.83992e-21
8.85619e-21
3.6606e-21
3.42256e-21
6.28856e-21
4.25627e-21
2.8824e-21
4.60264e-22
2.97862e-22
4.24003e-21
7.82828e-21
7.9769e-21
5.26137e-21
5.38929e-23
2.6282e-22
5.34028e-22
1.98846e-21
5.35365e-21
6.03231e-21
6.30699e-21
4.25481e-21
1.72685e-22
2.77458e-21
1.71867e-21
7.30197e-21
7.118e-21
5.61865e-21
1.18681e-20
9.04258e-22
6.92507e-21
3.03461e-21
8.10962e-21
8.59769e-21
1.29516e-21
1.18629e-20
5.6957e-21
3.24919e-21
1.41296e-20
4.37759e-21
5.28754e-21
8.41962e-21
1.58229e-21
1.23074e-22
1.1012e-21
1.36229e-20
5.44038e-22
1.35382e-21
6.88027e-21
6.03188e-23
1.67595e-21
8.54172e-23
6.12358e-21
3.95697e-21
1.8149e-21
4.36325e-22
4.5997e-22
7.18992e-21
7.53136e-21
4.17708e-22
5.50915e-21
1.0983e-20
9.24551e-22
1.17566e-22
1.3926e-21
8.85693e-21
4.14996e-21
6.25709e-22
4.13524e-21
3.66757e-21
6.11371e-21
8.56279e-23
3.79246e-22
1.82936e-22
8.34956e-22
7.06953e-21
3.28744e-21
2.84459e-23
2.55156e-21
3.59233e-21
3.75185e-22
7.35944e-21
1.64087e-21
2.65487e-22
1.9526e-22
4.63048e-22
5.25656e-21
2.73064e-22
2.05048e-20
6.93561e-22
1.49968e-21
6.15138e-21
4.88334e-21
3.48838e-21
3.44914e-21
3.72865e-21
1.92785e-21
4.08785e-21
4.54401e-21
1.80804e-21
8.00053e-22
2.94155e-21
1.30097e-21
1.06886e-21
4.13325e-22
4.71671e-21
5.07722e-21
7.51328e-21
1.02546e-21
2.26569e-20
3.74652e-21
2.16367e-21
1.15048e-21
1.39024e-21
4.86297e-21
8.16032e-21
6.17451e-21
5.20963e-22
1.64534e-21
3.59521e-21
8.33943e-21
2.82167e-21
5.10058e-21
3.18522e-21
4.76615e-21
2.51092e-23
9.7654e-22
6.50818e-22
3.85539e-21
4.07307e-21
8.74713e-22
4.42647e-21
1.2371e-21
8.84175e-21
2.80307e-21
8.75583e-23
2.41559e-21
1.50667e-22
1.87911e-20
3.12035e-21
2.96523e-21
4.6594e-22
1.88714e-21
5.78526e-21
1.74757e-21
3.06344e-21
3.62604e-22
1.58697e-20
2.21441e-22
2.14236e-21
1.03768e-20
2.40997e-22
3.13808e-21
1.05227e-21
6.45648e-21
4.14393e-21
2.10025e-22
1.32253e-21
1.03735e-21
3.29161e-21
5.15011e-21
5.80703e-23
4.63687e-22
1.13806e-21
9.98357e-21
5.80227e-21
2.13776e-21
6.87624e-21
7.23273e-21
1.58209e-21
5.23663e-21
8.16351e-22
7.80014e-21
1.74456e-20
6.07913e-21
9.09326e-23
2.3529e-21
2.33625e-21
3.61501e-21
9.54925e-22
1.03288e-21
1.66292e-21
4.16588e-23
3.8386e-21
6.43146e-22
2.56463e-21
4.1945e-21
7.67093e-21
6.69762e-22
2.42119e-22
2.71121e-21
4.86994e-21
1.19803e-20
1.47765e-21
5.73575e-21
4.01932e-21
1.90396e-20
2.68708e-22
3.18008e-21
7.46235e-21
1.70934e-20
3.30502e-21
5.5254e-22
8.53e-21
7.24198e-21
1.2635e-20
2.21601e-21
1.24779e-21
3.82398e-21
4.10377e-21
5.87421e-21
1.11318e-20
7.26146e-22
6.42365e-21
2.25764e-21
5.4662e-21
1.96237e-21
7.06836e-21
1.49221e-21
1.04336e-21
2.85958e-22
6.1458e-21
1.17384e-21
1.14186e-21
8.39205e-21
4.89216e-21
1.37897e-20
5.27555e-22
5.91078e-21
7.85146e-22
7.60272e-22
8.50336e-22
1.38684e-21
1.12517e-21
1.21819e-21
6.88464e-21
9.18265e-21
1.91786e-21
1.83131e-20
2.20022e-21
9.64251e-22
5.33357e-21
5.45965e-21
3.24922e-21
3.12491e-21
2.48536e-21
8.72301e-21
2.25636e-21
8.68877e-21
1.98068e-21
1.846e-22
2.20821e-23
1.42603e-20
8.11442e-21
2.53546e-21
2.38578e-21
2.48408e-21
6.10827e-21
6.23778e-22
2.13033e-21
2.3423e-22
9.038e-22
9.60705e-22
3.31647e-21
1.12179e-21
7.19439e-22
7.90787e-21
2.54797e-21
7.7132e-21
1.64594e-21
3.06907e-21
9.77845e-22
1.03149e-20
5.05424e-21
1.22574e-21
1.94069e-21
2.05547e-21
6.27821e-23
1.40483e-23
7.56572e-21
4.70706e-21
2.12199e-21
1.35404e-21
4.75193e-21
9.58082e-21
1.2289e-21
4.12885e-21
6.9305e-21
6.03061e-22
1.65058e-21
3.60091e-21
7.21764e-22
5.09396e-21
1.73723e-21
1.91692e-21
1.00003e-20
2.28441e-22
1.06191e-20
8.09429e-21
3.41035e-21
1.14381e-22
4.62102e-21
1.00573e-21
1.11263e-20
2.26134e-21
2.21321e-21
3.84128e-21
1.5694e-21
5.03021e-21
6.89567e-21
9.0501e-21
2.23006e-21
3.8003e-21
1.79564e-21
1.15525e-20
5.72512e-21
1.29457e-21
1.62691e-21
1.37084e-21
6.28502e-22
4.59162e-21
2.00854e-21
1.06621e-20
2.50085e-21
4.32113e-22
2.96617e-22
8.13755e-21
5.97391e-21
2.23333e-22
5.16781e-22
1.64161e-21
5.83078e-21
2.17195e-21
3.73445e-21
6.19956e-21
2.19037e-21
2.05922e-21
7.95028e-21
1.26299e-22
1.02815e-23
1.29921e-22
1.6684e-22
1.05634e-21
5.57654e-21
8.45526e-21
1.66426e-22
3.61179e-21
2.10207e-21
2.43532e-21
1.03612e-21
9.02758e-22
3.29277e-21
5.3194e-21
8.24577e-22
3.19642e-23
6.50636e-22
1.72875e-21
1.67244e-21
3.51889e-21
6.94106e-21
1.76288e-20
6.87218e-22
1.76983e-21
6.98276e-23
1.23462e-21
5.16299e-21
5.01705e-21
6.63859e-22
2.33042e-21
1.9324e-21
9.33968e-21
5.82399e-22
1.7873e-20
1.39417e-22
2.49189e-21
7.37623e-21
2.77251e-21
4.12673e-21
3.07036e-21
7.70905e-22
9.47317e-21
2.93782e-21
1.49856e-21
4.94419e-21
9.71665e-22
2.61209e-21
5.06316e-21
9.74979e-22
7.08586e-22
2.33657e-22
7.97302e-21
5.01285e-21
2.77915e-21
8.05194e-22
8.22111e-22
3.4791e-21
9.2083e-24
9.46253e-21
2.49046e-21
2.86764e-21
1.79998e-21
4.25252e-22
6.83986e-21
8.54223e-21
3.24912e-21
7.86876e-21
4.78548e-21
7.74264e-21
1.08573e-21
6.56794e-21
1.33291e-21
8.19964e-21
1.95154e-21
9.44273e-22
1.72341e-21
4.48144e-21
1.8029e-21
1.98662e-21
5.06246e-21
6.05101e-22
4.89406e-23
3.84962e-21
1.52559e-20
3.36122e-22
2.89671e-21
3.01049e-21
1.07515e-21
3.05133e-24
4.70555e-22
2.79967e-21
3.64999e-21
1.57388e-20
2.17007e-21
1.23304e-20
1.07562e-20
6.66681e-22
1.37337e-21
1.13816e-20
5.95339e-23
1.24953e-20
1.60889e-21
2.92159e-22
2.88802e-21
1.00183e-21
4.17064e-21
1.13491e-20
6.76518e-21
1.36127e-21
4.64992e-21
1.0188e-20
9.77732e-21
5.12585e-21
2.73609e-20
3.37998e-21
4.91886e-22
9.3923e-22
2.19563e-21
3.26212e-21
8.20676e-22
1.35043e-22
3.99312e-22
3.57342e-21
1.60691e-21
9.3514e-22
6.83099e-22
2.59242e-21
5.40366e-21
5.34708e-21
9.30609e-21
3.50056e-21
7.00814e-21
1.02664e-23
2.089e-21
7.41869e-21
3.28156e-21
1.04039e-21
7.38621e-21
4.58487e-21
3.18521e-22
3.73573e-21
7.18399e-22
1.30278e-22
6.76469e-22
2.18001e-21
2.11602e-21
8.60818e-22
1.04246e-21
1.48377e-20
4.18796e-21
1.9153e-22
2.57684e-21
6.27198e-21
1.0144e-20
6.69644e-21
8.15264e-21
8.50179e-22
8.64063e-21
4.1952e-21
5.96043e-21
2.21755e-21
4.58263e-21
1.44447e-21
4.43187e-21
8.19058e-21
1.2399e-22
1.87182e-21
1.99175e-21
1.83168e-21
6.33364e-21
1.46733e-21
1.14982e-21
1.826e-21
5.66115e-21
2.071e-21
1.97283e-22
1.44259e-20
6.12508e-21
6.77545e-21
1.64119e-20
1.88428e-21
1.53366e-21
4.68572e-22
9.60999e-22
6.06691e-21
1.90491e-23
8.14084e-21
1.78268e-22
4.2008e-21
3.08224e-21
5.34345e-23
1.93132e-21
3.00918e-22
2.08098e-21
6.26014e-21
1.19192e-20
1.09685e-21
2.26561e-21
1.6095e-21
4.8478e-21
2.92949e-20
8.09328e-21
4.31493e-22
1.55106e-20
8.46924e-23
7.91875e-22
1.98023e-21
1.80452e-20
8.57297e-22
2.10526e-21
5.93055e-21
5.83726e-22
1.964e-21
3.49453e-21
1.00651e-20
5.88775e-21
1.7575e-22
1.7443e-21
1.93493e-21
1.33215e-21
1.10177e-21
2.99963e-21
3.66126e-21
4.06423e-21
5.06452e-21
1.33132e-21
2.99683e-22
4.21984e-23
2.64541e-21
2.01842e-20
2.30341e-21
1.05427e-21
7.98209e-22
8.47911e-21
3.47528e-21
6.39847e-21
7.10435e-22
4.05797e-21
3.15133e-21
2.18753e-21
1.92479e-20
5.29921e-21
1.76973e-21
2.79779e-21
5.39373e-21
1.66945e-20
5.20528e-21
1.78978e-21
8.46252e-23
1.2955e-21
4.97958e-21
1.50206e-20
9.00914e-22
5.00971e-22
1.06069e-20
4.02741e-22
2.56135e-21
7.08886e-22
3.52193e-21
6.87004e-21
5.50591e-21
1.02797e-22
1.71668e-20
1.65052e-21
8.70423e-21
5.76338e-21
3.32945e-21
1.06839e-22
7.88832e-22
3.74789e-21
3.43939e-22
4.04604e-21
5.1994e-21
2.44205e-22
2.31042e-21
3.88545e-22
2.53956e-21
4.01475e-21
9.42565e-24
3.25429e-21
5.64928e-21
2.53334e-23
1.93623e-21
1.79739e-20
1.19763e-21
4.53875e-21
4.88913e-21
2.25565e-21
1.66596e-21
6.25073e-21
2.2561e-20
3.66435e-22
1.8523e-21
6.24232e-21
5.10335e-21
1.50583e-21
5.36532e-21
1.50902e-21
5.98728e-21
2.2684e-21
1.1812e-20
1.736e-21
3.18441e-21
2.21674e-21
2.87564e-22
4.84639e-21
4.37043e-21
1.8963e-21
2.04538e-21
1.86665e-21
3.11199e-21
7.71105e-21
5.08291e-22
1.47422e-20
8.33656e-21
3.45627e-21
7.14693e-21
3.87631e-21
2.49206e-21
8.53684e-22
1.18472e-20
4.1628e-21
1.71705e-21
1.04076e-20
1.44812e-20
1.16331e-21
8.03254e-21
3.33148e-21
3.14789e-21
1.03356e-20
9.23232e-21
2.87664e-21
3.53185e-21
7.00123e-21
1.49218e-20
1.42371e-20
1.78208e-21
6.43896e-22
9.98011e-21
6.41396e-21
3.83468e-21
2.1179e-21
8.27057e-23
7.26343e-21
7.61887e-24
1.29172e-20
2.24149e-21
2.65907e-21
6.25031e-21
1.35037e-20
3.94018e-21
1.84623e-21
1.31206e-21
5.76885e-21
1.30596e-21
6.51689e-21
2.97708e-21
3.9099e-22
1.44691e-21
4.40144e-21
1.27316e-21
3.3696e-22
2.68391e-21
8.95039e-21
1.90552e-23
1.26159e-21
1.0359e-21
6.63337e-22
8.85022e-22
1.02526e-20
2.3818e-22
3.3231e-21
4.31741e-21
3.6882e-21
3.48136e-21
2.70258e-22
4.56672e-22
1.5435e-21
1.58025e-22
1.36795e-21
5.6691e-22
1.67258e-21
1.78196e-21
1.90431e-21
1.64823e-22
3.64226e-21
9.26079e-21
1.40024e-21
1.13071e-20
1.21498e-21
6.35729e-22
2.40673e-21
3.28687e-21
1.13612e-20
1.83154e-21
3.79952e-21
5.00244e-21
4.96487e-21
1.07492e-21
1.72191e-21
4.71355e-21
3.33945e-21
7.79826e-22
1.51355e-21
2.4415e-21
1.20638e-20
2.44758e-21
1.11115e-21
1.27479e-20
2.73458e-21
8.33392e-22
8.73069e-23
1.2807e-20
1.1003e-20
9.95903e-22
5.046e-21
5.39701e-21
9.46443e-21
2.29842e-21
1.84707e-21
5.62196e-21
2.61347e-21
9.76934e-22
4.93532e-21
2.15013e-21
7.2161e-21
5.9979e-21
8.20003e-22
3.90003e-21
1.10162e-20
5.06553e-21
2.83321e-21
9.42154e-21
4.43779e-21
2.86324e-21
1.65309e-21
1.10721e-20
1.18988e-20
4.78217e-21
3.31811e-22
8.23243e-21
8.65358e-21
2.33944e-21
2.91427e-21
1.03408e-21
2.66403e-22
1.55707e-22
1.207e-20
3.33037e-21
1.31865e-20
1.40625e-21
4.39714e-21
1.59763e-21
5.27438e-21
1.00429e-20
4.12946e-21
1.57689e-21
2.51385e-21
3.10979e-21
2.72728e-23
1.68668e-22
6.00229e-21
2.32924e-21
8.4272e-22
5.47296e-21
4.69271e-21
3.09601e-21
5.40663e-21
1.35835e-21
4.89824e-21
2.01624e-21
3.51541e-21
6.6406e-22
2.4039e-21
1.07042e-21
1.75914e-21
1.28186e-21
3.24489e-22
1.91121e-21
8.19932e-22
4.49884e-21
2.11746e-21
3.67916e-21
1.54862e-21
7.29315e-21
4.63545e-21
5.78152e-21
3.60904e-22
3.55454e-21
3.28813e-21
2.26279e-21
9.25541e-22
3.89104e-21
1.04094e-21
4.02117e-21
2.04215e-22
3.1238e-21
8.06456e-21
5.26557e-21
2.6244e-21
2.24722e-21
7.13177e-21
9.68414e-22
1.37165e-21
1.80127e-21
5.54969e-21
4.82028e-21
2.04247e-21
1.59904e-21
2.02018e-21
5.15513e-21
5.24839e-22
4.46984e-21
3.59524e-21
3.49586e-21
2.39912e-21
6.29382e-21
7.66253e-22
2.4432e-21
6.54343e-22
1.31476e-20
4.66772e-21
2.53253e-21
1.80282e-20
4.75394e-22
5.28377e-21
6.2346e-22
9.306e-21
3.52921e-21
1.85565e-21
5.07654e-21
1.14766e-21
6.40284e-21
1.94892e-21
3.5967e-21
4.69702e-21
1.62252e-21
7.20567e-22
2.16943e-21
4.93036e-22
3.0303e-21
2.66679e-22
4.28826e-21
3.85568e-21
6.56951e-21
3.30343e-21
8.71713e-22
6.14527e-21
1.4375e-20
9.36653e-22
6.02517e-21
2.17565e-21
4.12094e-21
1.41044e-23
7.902e-21
4.87417e-21
9.84967e-22
2.30278e-21
6.22075e-21
9.85638e-21
5.19987e-21
2.61891e-21
2.10172e-21
1.48753e-23
7.7214e-22
5.02666e-21
7.347e-22
4.23727e-21
6.8773e-21
5.02561e-21
2.4175e-21
2.45883e-21
2.48326e-21
9.07396e-21
1.92549e-21
1.96893e-21
7.57341e-21
2.41239e-21
2.5953e-21
3.76438e-22
7.40314e-22
1.62327e-22
1.07324e-21
2.76755e-21
3.86382e-21
2.66339e-21
1.00129e-20
2.22428e-21
4.92006e-21
2.79833e-21
2.37931e-21
1.61116e-21
2.27179e-21
5.74111e-22
1.91241e-21
2.19891e-21
3.38793e-22
9.99402e-22
1.96396e-21
1.02869e-21
2.47505e-21
8.43005e-21
1.32875e-20
9.59941e-21
8.70714e-21
1.78381e-21
7.24308e-21
1.28678e-21
2.99306e-21
1.80136e-21
3.22669e-22
8.57304e-21
4.42903e-21
8.28826e-21
3.76817e-21
3.17642e-21
6.87763e-21
7.29533e-22
2.56776e-21
2.31994e-21
1.58884e-20
2.99166e-21
1.18407e-20
1.55953e-21
1.49269e-21
7.6957e-22
2.84908e-21
3.76376e-22
1.03681e-20
6.34577e-22
2.7837e-21
2.79105e-22
3.3559e-21
2.64101e-21
1.36907e-21
4.40082e-21
1.83207e-21
1.16643e-20
1.70449e-21
4.96992e-21
6.44528e-23
3.49945e-21
1.23017e-21
5.00004e-22
7.9898e-23
6.97067e-21
1.53636e-21
1.08993e-21
3.71633e-21
4.33489e-21
4.00144e-21
1.01752e-20
5.86897e-21
4.65765e-21
1.30401e-21
4.4138e-21
1.01052e-20
1.49961e-20
2.39431e-21
2.20428e-22
1.88189e-21
7.65965e-22
1.56112e-21
5.14913e-21
4.73449e-22
7.09053e-23
2.87697e-22
1.21634e-20
2.91889e-21
7.22887e-21
3.68096e-21
5.26243e-21
1.22704e-21
3.52667e-21
5.55767e-21
8.3066e-22
6.43587e-21
5.81091e-21
5.76833e-22
1.01966e-20
1.47834e-21
7.18746e-21
5.2175e-22
7.12116e-21
2.71928e-21
2.59325e-21
8.74358e-21
6.0747e-21
3.31652e-21
5.74606e-21
5.29111e-21
7.97501e-22
7.01429e-21
1.05827e-21
1.8752e-22
6.26647e-23
2.84642e-20
3.16688e-21
5.42747e-21
1.00085e-20
1.20093e-20
1.52107e-20
1.72319e-21
9.94787e-21
5.7952e-21
4.70832e-21
1.2432e-20
1.49339e-21
1.60015e-21
4.85106e-21
1.027e-20
1.23654e-21
1.46906e-20
1.77428e-22
1.25041e-21
7.97231e-23
8.30792e-21
1.34476e-21
1.62866e-20
2.27756e-21
7.01028e-23
2.95584e-21
9.61372e-23
5.27884e-21
9.24812e-21
1.04144e-20
4.96517e-21
3.72958e-21
7.81911e-21
3.9909e-21
3.51601e-21
3.57885e-21
3.67276e-21
2.33246e-21
1.2493e-21
5.81087e-21
2.7288e-22
8.91077e-22
1.76001e-21
5.39404e-22
2.80932e-21
5.8343e-21
1.00649e-22
5.01526e-21
3.92955e-21
9.97482e-22
1.09954e-20
4.31145e-21
3.69689e-21
1.40974e-20
3.77454e-21
4.18187e-21
1.00996e-21
1.49452e-21
1.71292e-20
3.03348e-21
3.79763e-21
3.11779e-21
1.75802e-21
2.89159e-21
1.38308e-20
1.9298e-21
3.11732e-21
4.53102e-22
2.12844e-22
3.43822e-21
1.24591e-21
1.28194e-21
1.65936e-20
7.50144e-21
3.80938e-22
5.0427e-21
2.60474e-21
1.07113e-20
1.11563e-20
1.42211e-21
4.52512e-21
1.01464e-20
1.76794e-21
3.0535e-21
5.1465e-22
5.43701e-21
5.17885e-21
3.92184e-21
8.22014e-22
4.66341e-21
4.4564e-21
1.22029e-21
8.21318e-22
6.15344e-23
4.99352e-23
3.97117e-21
1.34671e-21
1.09033e-20
6.3716e-21
8.56319e-21
2.97869e-21
4.27677e-21
1.47958e-20
2.96094e-21
2.50908e-21
9.98897e-21
3.41377e-23
9.34184e-21
3.71386e-21
1.46857e-21
1.70397e-21
8.54418e-21
5.89167e-21
3.27721e-21
2.05075e-20
8.25443e-21
2.75328e-21
2.91294e-21
3.33304e-22
1.78981e-21
5.02811e-21
2.80534e-22
8.62174e-21
1.51391e-21
4.4538e-22
4.3147e-21
2.87832e-21
3.65255e-22
3.61721e-22
1.32855e-22
3.98944e-21
2.05197e-21
1.36778e-22
2.91666e-21
9.92147e-21
4.99874e-21
3.19844e-21
7.37743e-21
4.81669e-22
1.46369e-21
8.44885e-21
3.88626e-21
6.62381e-21
4.46258e-22
8.32393e-22
1.85967e-21
6.25832e-21
3.00914e-21
3.87989e-21
2.75052e-21
2.19471e-21
1.22897e-20
5.68097e-21
1.65239e-21
3.86612e-22
4.0465e-21
8.61287e-21
6.92813e-21
5.40961e-21
3.35535e-21
3.082e-21
7.69326e-21
2.46539e-21
2.85384e-21
3.60633e-21
7.22373e-21
1.23304e-20
4.92569e-21
6.7151e-22
1.13462e-21
4.97397e-21
1.25058e-21
1.94806e-21
4.39398e-23
5.40643e-22
8.43716e-21
1.14256e-20
1.53002e-20
3.70139e-21
1.22297e-20
1.33062e-20
4.1674e-22
2.43347e-21
7.95028e-21
2.85609e-22
3.84096e-22
1.26889e-21
1.13025e-21
4.01346e-21
2.19873e-21
3.9506e-21
2.51125e-21
7.66013e-21
1.14602e-20
2.97793e-22
6.48601e-22
2.56525e-20
3.41359e-21
4.18784e-21
8.19614e-21
6.93662e-22
3.80179e-21
1.81347e-21
8.74805e-22
1.89997e-20
1.54937e-21
4.51196e-22
1.61499e-21
1.79477e-22
3.38208e-21
1.10855e-20
1.46236e-21
9.01209e-21
1.15007e-22
1.33611e-21
1.2766e-20
2.14154e-21
2.78475e-21
8.15716e-21
5.04451e-21
1.35278e-21
1.16889e-20
9.77744e-22
8.91596e-21
9.53542e-21
3.03554e-22
9.15584e-21
1.4634e-20
1.01508e-20
1.46598e-21
1.74188e-21
1.14147e-20
9.2814e-21
6.06924e-21
2.89624e-21
2.61678e-21
3.05688e-21
1.37046e-21
4.22486e-21
8.02942e-21
2.16192e-21
5.71809e-21
3.65725e-21
7.4941e-21
3.85139e-22
1.00892e-20
8.60277e-21
1.1798e-22
2.49842e-21
1.62333e-21
5.4368e-21
9.07105e-22
2.23906e-21
1.97495e-21
7.07143e-21
1.02346e-21
6.69698e-21
8.50738e-21
7.86977e-21
9.17858e-21
3.35464e-21
8.33257e-22
4.20278e-21
6.30069e-22
6.89941e-22
2.98777e-21
3.90658e-21
7.40738e-22
5.29149e-23
5.92783e-21
3.10467e-21
2.45916e-21
2.48758e-21
2.81459e-22
6.62735e-21
1.33626e-21
3.1396e-21
1.37571e-21
1.44378e-20
1.22517e-21
4.53979e-21
6.17107e-21
9.11211e-22
1.36245e-21
4.34304e-21
2.23541e-21
2.45775e-21
8.53136e-21
5.9654e-21
4.86343e-21
1.45537e-21
7.00781e-21
5.29322e-21
3.24933e-21
1.65009e-21
3.01669e-21
1.54977e-21
7.67288e-21
1.07801e-20
1.22329e-21
2.6826e-21
5.49399e-22
2.17547e-21
6.02904e-21
4.24399e-21
1.84386e-20
2.4232e-20
7.85106e-21
2.06804e-21
5.43745e-21
2.31544e-21
8.26822e-22
2.05213e-21
3.30195e-21
6.1197e-22
7.55721e-23
4.68351e-22
5.08877e-21
5.37273e-22
8.15799e-21
4.31311e-21
2.76152e-21
6.08811e-21
4.94988e-21
9.21978e-21
6.53193e-21
1.24298e-21
1.15313e-20
7.64069e-21
7.34765e-21
2.47832e-21
3.30119e-21
4.91613e-21
2.30711e-20
7.09883e-22
2.68095e-22
2.52896e-21
1.22956e-20
6.29191e-21
3.4598e-21
4.44773e-22
1.99795e-21
1.6707e-21
3.81711e-21
2.27826e-21
9.03994e-22
5.98589e-21
7.19134e-21
6.85893e-21
6.33865e-21
2.95923e-22
1.3147e-21
1.92769e-23
1.7586e-22
3.28772e-21
2.50732e-21
2.64629e-21
2.5514e-21
4.44249e-21
4.15698e-21
3.00425e-22
9.16575e-23
6.48874e-21
5.79086e-21
1.80588e-21
3.49989e-21
5.10479e-22
8.58704e-22
1.00021e-21
1.3193e-20
9.67808e-22
9.49535e-21
5.61175e-21
6.65659e-22
3.52776e-21
7.0989e-21
4.04637e-22
1.35345e-21
2.03359e-21
7.91559e-22
3.66443e-21
1.1132e-21
1.76011e-21
1.09816e-20
1.50398e-21
6.44657e-21
1.03513e-21
2.59834e-21
1.01075e-20
2.03576e-21
1.28953e-20
2.38306e-22
1.71572e-21
3.48545e-21
3.73082e-21
1.44449e-20
4.16334e-21
1.54529e-21
3.76297e-21
3.83429e-22
4.30339e-22
8.48893e-22
3.78789e-23
6.87639e-22
4.47996e-22
1.07743e-20
4.24615e-21
5.87882e-21
2.54693e-21
3.33374e-21
1.9532e-21
5.34384e-21
4.62221e-21
1.1005e-20
3.9133e-21
4.02814e-21
5.43503e-21
4.25053e-21
2.23224e-20
9.80907e-21
4.40919e-21
6.67334e-22
3.67711e-21
1.19583e-21
1.64622e-21
6.97831e-21
8.71687e-21
3.78408e-21
2.32018e-21
1.20596e-21
8.37018e-22
3.44516e-21
1.69613e-22
2.2371e-20
4.59676e-21
4.98469e-21
1.20542e-20
5.27616e-21
2.57929e-21
2.04418e-21
1.97952e-21
2.19948e-21
6.85134e-21
1.58439e-20
1.35353e-22
9.4078e-21
1.97902e-21
6.47271e-21
2.40858e-20
2.54962e-23
6.38882e-21
2.97621e-21
2.27384e-21
3.44782e-21
5.87042e-21
7.42011e-21
1.63442e-22
8.16304e-21
5.53803e-21
7.69279e-22
3.29035e-21
1.62409e-21
3.93366e-21
3.29184e-21
7.75668e-21
1.9652e-21
5.94076e-21
4.40176e-22
8.42245e-22
2.34936e-22
7.77336e-21
7.12165e-22
1.74534e-21
4.44152e-21
5.6843e-22
1.84136e-21
2.92207e-22
2.73569e-21
2.62757e-21
1.11368e-22
7.63876e-22
6.22936e-21
1.08255e-20
2.30907e-21
7.617e-21
1.1292e-21
9.04931e-21
4.47333e-21
6.2882e-21
3.73035e-21
5.18377e-23
9.34883e-22
8.78061e-21
3.79424e-21
2.63756e-21
1.02343e-20
2.38373e-21
4.27372e-22
3.24331e-21
2.0386e-21
5.52919e-23
1.66942e-21
5.25015e-22
4.53086e-22
7.93281e-21
5.44781e-21
7.84654e-21
6.99347e-21
6.20913e-21
2.97279e-21
1.33485e-21
6.72923e-22
4.03615e-22
2.03869e-21
8.64545e-22
5.17944e-21
5.09841e-21
5.7865e-22
1.18622e-21
2.53623e-21
1.77803e-21
9.52482e-22
3.01277e-21
1.33058e-20
3.29807e-20
7.86249e-22
1.62886e-21
1.04616e-21
3.421e-22
6.17108e-22
3.32604e-21
1.76576e-22
3.40255e-21
5.16981e-21
1.02386e-21
7.06401e-21
6.19763e-23
1.54624e-22
5.44318e-21
2.50863e-21
3.98567e-21
2.03696e-21
8.3758e-21
4.83363e-21
2.19278e-21
5.20969e-21
1.29603e-21
6.22095e-21
4.92091e-21
4.57888e-21
4.87325e-21
5.88754e-21
8.25417e-22
2.41565e-21
2.23282e-21
3.43607e-21
3.4771e-21
5.40552e-21
5.6797e-22
1.21808e-20
3.82681e-21
1.84681e-20
4.46275e-21
3.2708e-22
7.10724e-21
2.31114e-20
1.26998e-21
1.15253e-20
3.73992e-21
8.32496e-22
1.47089e-20
7.84642e-21
5.30227e-21
2.29459e-21
1.68638e-21
4.32656e-21
1.19006e-21
8.44503e-22
1.91103e-21
7.68713e-21
1.83279e-21
4.44679e-21
4.03219e-23
1.2266e-22
6.98502e-21
4.98923e-21
3.3668e-21
1.77206e-20
3.05295e-21
6.63784e-21
3.48611e-22
1.56428e-21
3.24078e-21
7.02714e-21
1.58958e-21
7.13509e-22
9.80502e-22
1.8571e-21
1.62151e-21
4.86345e-21
1.16088e-20
6.80002e-21
3.27114e-21
1.19206e-20
2.58803e-21
5.90732e-21
5.25314e-22
8.80326e-21
1.87787e-20
3.00981e-21
7.71718e-23
4.17086e-21
8.73975e-22
9.55954e-21
8.09501e-21
6.05456e-23
3.42001e-21
3.60415e-21
7.64586e-22
1.1215e-21
6.12199e-21
7.24674e-22
1.39476e-20
2.38628e-21
9.97334e-21
1.47135e-21
9.95328e-21
4.42917e-21
2.1037e-21
9.42936e-22
4.83374e-21
4.90253e-21
3.33825e-21
8.94849e-21
5.40142e-22
1.50795e-21
3.03043e-22
3.36921e-22
1.76412e-22
3.78494e-21
2.09362e-21
4.02479e-21
1.43614e-21
1.03863e-21
1.58129e-20
4.23265e-21
6.84619e-21
3.17145e-22
1.02679e-20
3.65768e-22
1.99117e-21
3.03904e-21
6.28687e-21
9.42527e-21
2.59488e-22
2.22455e-21
8.01597e-22
2.02116e-22
1.89352e-20
4.33281e-21
6.07834e-21
2.89811e-21
1.35786e-21
2.97835e-22