/*--------------------------------*- C++ -*----------------------------------*\
  =========                 |
  \\      /  F ield         | OpenFOAM: The Open Source CFD Toolbox
   \\    /   O peration     | Website:  https://openfoam.org
    \\  /    A nd           | Version:  7
     \\/     M anipulation  |
\*---------------------------------------------------------------------------*/
FoamFile
{
    version     2.0;
    format      ascii;
    class       scalarField;
    location    "0/lagrangian/dsmc";
    object      Ei;
}
// * * * * * * * * * * * * * * * * * * * * * * * * * * * * * * * * * * * * * //


35834
(
3.91395e-21
1.63488e-21
7.37811e-23
6.09775e-21
4.92344e-21
4.61568e-21
9.25533e-22
2.67073e-21
1.0437e-21
3.4835e-21
2.94628e-22
3.0683e-21
2.50091e-22
9.45909e-21
5.56265e-21
3.54481e-21
9.50646e-22
2.12445e-21
3.57358e-21
3.77394e-22
4.58201e-21
1.88865e-21
5.2046e-22
8.63597e-22
4.92829e-21
2.60337e-21
9.68538e-22
2.91961e-23
8.97548e-22
1.13119e-21
1.06728e-21
4.46428e-21
2.10892e-21
3.25098e-21
2.05432e-22
7.44069e-22
4.35392e-21
1.79201e-21
9.58397e-22
9.73898e-22
1.19505e-20
4.83839e-23
7.62361e-22
4.07475e-22
6.76397e-23
4.00933e-22
4.51855e-22
1.11762e-21
2.19055e-21
1.43711e-21
3.25515e-22
9.92533e-21
1.00034e-21
4.096e-21
3.56692e-21
3.11684e-21
1.3973e-21
6.44345e-22
8.42028e-22
2.12704e-21
4.15554e-21
9.14887e-22
1.97041e-21
8.95835e-22
8.90317e-21
7.56384e-21
6.56915e-21
1.73946e-21
5.22475e-24
2.07263e-22
1.98271e-21
2.32585e-21
4.68613e-22
1.61248e-22
1.62086e-21
3.21614e-21
6.44507e-22
3.457e-21
3.06722e-21
9.72547e-23
4.86104e-21
4.98114e-22
1.0578e-21
6.84504e-22
6.64079e-22
7.36886e-28
1.15468e-21
2.84027e-25
1.31404e-21
4.36206e-21
8.31521e-22
2.5275e-21
2.7129e-22
2.26265e-22
5.16481e-22
2.38649e-21
1.29304e-21
2.54785e-21
3.97031e-22
9.62826e-22
8.06623e-21
2.92622e-21
1.92233e-21
5.33348e-21
5.0379e-22
4.31174e-21
2.52751e-21
2.11261e-22
1.0499e-21
3.75455e-21
1.75523e-21
5.77117e-23
1.94246e-22
4.34837e-21
4.20253e-22
3.53653e-21
9.87078e-22
1.29452e-21
1.57997e-21
2.0323e-21
2.42402e-21
2.19242e-21
2.16115e-22
6.2154e-21
4.31088e-21
2.05001e-21
2.66838e-21
3.64421e-23
3.0865e-21
3.58494e-21
2.23649e-22
3.98793e-21
7.90362e-22
1.60472e-21
5.06388e-21
7.77294e-21
8.31433e-22
4.48667e-21
2.97517e-22
4.9373e-22
2.54548e-21
6.82052e-22
1.44865e-21
3.9704e-21
4.00813e-21
3.3841e-21
2.66258e-21
5.01721e-21
4.99607e-22
9.74562e-22
1.11698e-22
2.8479e-22
1.65096e-21
1.69968e-21
3.2525e-21
4.95326e-21
6.60951e-23
1.9215e-23
2.87095e-21
6.04188e-21
1.62734e-21
2.2148e-22
5.28175e-21
9.16987e-21
2.14304e-21
3.47467e-21
8.91361e-21
1.23361e-22
2.46878e-21
1.80275e-21
8.90462e-23
1.71648e-21
2.92991e-21
1.54192e-21
2.29557e-21
1.11068e-22
1.50094e-21
8.27036e-22
1.09652e-21
2.53803e-22
3.23778e-21
8.43097e-22
4.44905e-21
9.50543e-21
5.92302e-22
5.55457e-21
2.00428e-21
9.70724e-22
6.16833e-21
2.51379e-22
2.42678e-22
7.8541e-22
2.61788e-21
1.4551e-21
1.74717e-21
2.05282e-22
8.39447e-22
6.0459e-22
1.01169e-21
1.10419e-20
1.36866e-23
3.00808e-21
6.8403e-22
3.35647e-21
2.40213e-21
2.085e-21
2.02688e-21
8.08515e-23
9.77788e-22
1.69961e-21
7.4528e-22
2.83114e-22
2.44454e-21
4.20401e-22
5.13217e-22
1.69093e-21
5.60136e-21
1.95514e-21
3.56223e-21
1.30642e-21
3.24697e-21
3.13245e-22
2.28258e-22
2.60635e-21
8.00078e-23
3.54672e-21
1.28195e-21
1.95655e-21
4.69501e-22
2.24398e-21
2.08171e-21
6.27443e-22
4.69497e-21
1.0229e-21
1.45791e-21
1.21501e-22
9.6826e-23
9.48261e-21
2.22306e-21
2.89967e-21
4.77508e-23
1.0174e-21
4.27637e-21
3.24693e-21
2.45113e-21
6.93305e-22
2.60351e-21
3.46877e-21
6.01217e-21
4.61948e-22
2.86779e-21
3.62942e-22
7.42182e-22
2.79142e-21
1.44878e-21
1.68077e-21
6.93734e-21
1.79087e-21
3.34081e-22
1.31438e-21
1.24106e-21
1.19659e-21
1.51756e-21
7.87164e-22
1.31881e-21
8.97867e-22
1.94909e-21
5.21542e-22
1.42721e-21
2.26206e-22
3.49331e-21
1.43159e-21
3.67891e-21
5.14413e-21
4.63581e-21
5.33604e-22
1.6769e-23
4.26367e-22
2.95948e-21
1.52755e-21
5.25e-21
2.81947e-22
1.67068e-21
6.48281e-21
1.54538e-21
3.30351e-21
2.33976e-22
1.45827e-21
1.55094e-21
1.74449e-21
3.18962e-21
7.19647e-21
1.10479e-22
4.02252e-21
9.53712e-22
1.83518e-22
2.49079e-21
8.16764e-21
7.40144e-22
6.47539e-22
2.61161e-22
2.34861e-21
1.74743e-21
3.43788e-21
1.40689e-21
1.72354e-21
3.47233e-21
4.49282e-21
3.70196e-22
1.85235e-21
2.32588e-21
1.71679e-21
1.17148e-21
3.91075e-21
1.65997e-21
4.78176e-22
5.20512e-21
6.70163e-21
1.4529e-21
5.89965e-22
8.69745e-22
2.18592e-22
1.76762e-22
2.10912e-21
2.799e-21
5.0568e-22
3.68068e-22
2.56635e-21
6.67673e-22
1.51269e-21
9.96921e-22
2.0125e-21
2.64023e-22
2.98507e-21
9.48515e-22
1.67179e-21
5.85176e-22
3.22236e-21
1.16381e-21
8.63656e-23
6.65122e-21
5.48821e-22
1.98721e-21
5.48124e-21
6.12745e-21
2.95583e-22
1.30096e-21
5.64226e-23
4.08358e-22
4.10485e-22
3.46165e-21
9.90864e-22
3.25924e-22
1.40603e-21
4.35855e-21
5.77594e-22
2.3428e-21
5.14746e-21
2.23275e-21
1.66146e-21
5.77329e-22
6.222e-21
1.40213e-21
5.18853e-22
1.3746e-22
2.13641e-21
3.78433e-23
1.35872e-21
6.8225e-22
4.92669e-21
4.01259e-21
5.53615e-21
6.0371e-21
3.5408e-21
4.82861e-21
3.22564e-21
1.82382e-21
1.26378e-21
4.77559e-21
2.63738e-21
7.62935e-22
1.73368e-21
2.26193e-22
1.29511e-21
9.06357e-21
4.75135e-21
9.92323e-22
2.92248e-22
8.75489e-22
3.76782e-21
4.4409e-21
1.61092e-21
1.13616e-21
4.66195e-21
2.32667e-22
2.14329e-22
1.0479e-21
4.98228e-22
2.66363e-21
4.14407e-21
1.83146e-22
2.76193e-21
3.03075e-21
1.83761e-21
1.80829e-21
1.48391e-21
7.42655e-22
4.33551e-22
2.30821e-21
1.77445e-22
3.39331e-21
8.56383e-22
1.61344e-21
2.62382e-21
5.47129e-21
1.54898e-21
9.45738e-22
8.93735e-22
5.25025e-22
1.51335e-22
1.35837e-21
9.42655e-23
9.50613e-21
2.6944e-21
7.94299e-22
2.71824e-21
1.09283e-21
3.00477e-21
6.03966e-21
6.88602e-21
1.69715e-21
2.30726e-22
3.21995e-22
1.01057e-20
3.03384e-22
1.62632e-21
1.71138e-21
8.25197e-22
5.02267e-22
2.28078e-22
1.89013e-21
7.64713e-21
7.51938e-22
1.43641e-22
2.62523e-21
2.13963e-21
1.58217e-21
1.02757e-21
7.03587e-21
4.36192e-22
1.79672e-21
3.75074e-21
1.09749e-21
2.71535e-21
8.19719e-22
4.07833e-21
2.95448e-21
4.27528e-21
8.21233e-22
3.4021e-21
8.15865e-21
5.56069e-21
1.7981e-21
1.13777e-22
2.47391e-22
2.62041e-22
1.17228e-21
9.58928e-21
1.62241e-23
6.5676e-21
2.13854e-23
6.35536e-21
1.22178e-21
9.26547e-22
6.72675e-22
4.70832e-22
2.61313e-21
1.76262e-21
2.02482e-21
3.52514e-21
6.97681e-21
7.32298e-22
1.52487e-21
8.86888e-21
1.48222e-21
3.26932e-21
5.51054e-22
3.00922e-21
7.17434e-22
9.71804e-22
1.48079e-21
2.6396e-21
6.153e-23
1.19608e-21
4.53319e-22
2.08195e-21
1.99585e-21
3.67358e-21
8.52365e-22
3.05352e-21
7.06063e-22
1.19953e-21
4.14373e-22
2.06054e-21
1.32786e-21
6.03801e-23
7.5594e-22
8.13197e-22
3.1647e-21
2.91097e-21
4.76729e-21
2.4412e-21
5.14597e-21
1.97625e-21
2.06314e-21
2.00572e-21
8.20892e-22
4.83258e-22
1.23619e-21
2.03034e-21
8.38088e-22
5.42833e-22
2.92721e-21
1.54231e-21
1.31123e-21
1.38286e-21
3.20752e-21
4.13391e-22
1.15548e-21
3.04105e-21
3.588e-21
5.4371e-23
2.05239e-21
8.72816e-22
1.53419e-21
2.76636e-21
1.44951e-21
7.98011e-21
2.19055e-21
3.97431e-21
3.16349e-22
3.64606e-21
4.8747e-22
1.42308e-22
5.45704e-21
2.03717e-21
9.95325e-22
1.02742e-21
1.85576e-21
1.12311e-21
3.69002e-21
1.49827e-22
1.77045e-21
4.20099e-21
1.85649e-21
6.91722e-22
3.33104e-21
5.52234e-22
2.51451e-21
2.5145e-21
8.87924e-22
8.2681e-22
1.41231e-21
9.00317e-22
8.7772e-22
5.08881e-22
4.20892e-22
1.50465e-21
8.23253e-21
1.48889e-21
2.45994e-21
8.0667e-21
2.18183e-22
3.81866e-22
1.15685e-21
5.45765e-22
4.61021e-21
8.19619e-22
1.7046e-21
3.87132e-22
5.14113e-22
3.74397e-21
1.50551e-21
1.29794e-21
9.47687e-23
2.51737e-21
6.14883e-22
7.66823e-22
1.85778e-21
9.81343e-23
3.88061e-21
4.58238e-22
3.0633e-21
5.87927e-21
2.69625e-21
1.36741e-22
1.78778e-21
7.15517e-21
1.11002e-21
1.24202e-20
8.65548e-22
4.95905e-21
3.42574e-22
2.71136e-23
3.19168e-22
1.50868e-21
1.04579e-21
1.03081e-21
1.1815e-23
3.62505e-22
1.17855e-21
2.90407e-21
2.95826e-22
3.26407e-21
2.51686e-21
4.47984e-22
2.95286e-21
4.58225e-21
9.6525e-21
2.66544e-21
5.06253e-21
1.08892e-21
2.11648e-21
2.52968e-21
6.58856e-21
5.34036e-21
1.58226e-21
6.20498e-22
1.02156e-21
2.18015e-21
2.07079e-21
4.28881e-21
6.33484e-22
2.65077e-22
3.50519e-22
1.40287e-21
3.46042e-21
3.21086e-21
7.84498e-22
2.56411e-21
1.91527e-21
2.08417e-21
1.58564e-21
4.98958e-22
3.46328e-22
3.57575e-21
4.33031e-21
3.25742e-21
2.08431e-21
3.85582e-22
8.40122e-22
4.74459e-22
2.88495e-21
1.49286e-21
3.60322e-21
1.53917e-21
4.85571e-21
2.28499e-21
8.00157e-22
5.64399e-21
6.47273e-23
3.76195e-22
3.70611e-21
6.74335e-22
7.3798e-22
7.54048e-21
1.31724e-22
1.22483e-21
1.64501e-21
1.65733e-21
3.89775e-21
1.63343e-21
2.87662e-22
3.97546e-21
1.99313e-21
2.31927e-22
2.58131e-22
5.45602e-21
3.93024e-21
7.604e-21
1.78662e-21
8.03124e-22
3.56059e-21
2.06452e-22
1.02335e-21
2.55873e-21
3.4515e-21
6.13843e-22
1.72314e-21
1.93333e-21
6.4257e-22
1.24177e-21
4.4328e-22
3.02758e-21
3.41914e-21
3.01521e-21
3.37859e-22
7.47412e-22
6.27452e-23
1.06366e-21
3.93273e-21
5.12967e-22
2.24595e-21
8.4493e-22
5.57422e-22
1.67335e-21
2.5468e-21
3.43372e-22
1.73546e-21
9.05812e-22
7.17922e-22
1.1501e-21
4.95544e-21
3.28416e-22
3.77894e-21
3.25846e-21
1.43782e-21
4.82791e-21
1.09521e-21
5.38497e-21
4.86086e-21
5.69237e-21
1.16903e-21
1.677e-21
3.41805e-21
9.23389e-22
3.1129e-21
1.03241e-21
4.0671e-23
3.02272e-21
2.82414e-22
3.99961e-21
1.28143e-21
8.1422e-22
1.60603e-21
2.70347e-21
5.21408e-21
1.84298e-21
1.38249e-21
1.17636e-21
1.77428e-21
2.5918e-21
4.26245e-21
9.60462e-22
3.59429e-21
3.6302e-21
8.16058e-22
1.05249e-21
4.33491e-22
4.2855e-21
8.34187e-22
2.20208e-21
3.29961e-22
9.21229e-22
2.48074e-22
3.61023e-21
2.8432e-22
4.5104e-21
4.52726e-21
4.62442e-21
7.68966e-23
1.73055e-21
2.00153e-21
2.76946e-22
4.64128e-23
5.38084e-21
1.85988e-21
4.62014e-22
4.19374e-22
2.48529e-21
4.92861e-21
3.23961e-21
1.11218e-21
3.73596e-22
1.26222e-22
1.82948e-21
1.76894e-23
2.18377e-21
1.97217e-21
5.73918e-22
2.94727e-22
6.55023e-21
7.52572e-21
2.59134e-21
6.3105e-22
1.33759e-21
1.26862e-21
6.50229e-21
9.20466e-23
7.2123e-22
8.45056e-22
2.45943e-21
8.44089e-23
1.64346e-21
4.56627e-22
9.93827e-22
2.09364e-21
1.20954e-21
2.43553e-22
1.73888e-21
2.09763e-22
4.12548e-21
6.47641e-21
2.04106e-23
7.18363e-21
5.4453e-22
4.34056e-21
1.66185e-21
2.18484e-21
1.43073e-21
3.60076e-21
2.71071e-22
2.25324e-21
2.39396e-21
7.91442e-22
1.4834e-21
2.93147e-21
3.64567e-21
1.10391e-21
2.09396e-21
3.60467e-21
8.46314e-23
6.15796e-21
1.38539e-21
2.36599e-22
1.06199e-21
1.05591e-20
3.91816e-21
7.43455e-22
5.94533e-21
3.79683e-21
2.62626e-22
3.17899e-21
1.11306e-21
1.55246e-21
1.2438e-22
6.0649e-22
2.35067e-22
1.24205e-21
4.4708e-21
3.39971e-21
1.14988e-21
3.75911e-21
7.86021e-22
3.11292e-23
1.78972e-21
1.07211e-21
2.44971e-21
1.63202e-22
1.17831e-21
3.24741e-21
2.29516e-21
5.23357e-22
7.7538e-22
1.51032e-21
2.34161e-21
1.50206e-21
3.68785e-21
5.35175e-22
2.01274e-21
6.44678e-21
1.04123e-21
4.51672e-21
4.39151e-21
1.80821e-21
4.96678e-21
1.79246e-21
3.56691e-21
1.61751e-21
1.84134e-21
9.88079e-22
3.90361e-22
3.11718e-21
3.17223e-21
1.00934e-21
8.5414e-21
1.6197e-21
8.55654e-23
7.43641e-21
1.40881e-21
2.32273e-21
6.86709e-22
5.08697e-22
6.56743e-22
1.10597e-22
2.78272e-21
1.81271e-21
6.78614e-21
1.72529e-21
4.34512e-22
6.2187e-21
8.39553e-22
9.25386e-23
7.25104e-22
1.57203e-21
2.50819e-21
2.22041e-21
6.25026e-22
3.05111e-21
3.61965e-21
1.26046e-21
2.37453e-21
9.89129e-22
2.26013e-21
1.51234e-21
2.86636e-21
2.13766e-21
2.65205e-21
5.47566e-22
6.81622e-23
4.40367e-22
3.03039e-23
4.96332e-22
1.31997e-21
2.42754e-23
2.75468e-22
1.88807e-21
2.02899e-21
1.20427e-21
3.13225e-21
1.27282e-21
3.47003e-21
4.35062e-21
4.78866e-22
6.92188e-21
3.59984e-21
2.48157e-21
1.15867e-21
4.48088e-22
4.91553e-22
8.28387e-21
5.65544e-22
3.38317e-21
5.83708e-22
5.92097e-23
7.9418e-21
1.152e-22
1.80787e-21
8.34545e-22
7.9497e-21
2.45806e-21
2.85891e-21
5.21628e-22
5.65912e-22
9.0492e-22
5.38577e-21
6.04452e-22
1.82108e-21
3.0488e-22
3.39433e-21
1.4302e-21
5.1696e-22
1.72042e-21
7.05452e-21
7.67339e-22
2.08083e-21
7.1487e-22
2.57432e-21
8.10626e-22
1.35506e-21
3.33784e-22
3.10045e-21
2.75758e-21
5.45381e-23
9.91564e-22
1.81219e-22
6.09339e-21
3.36317e-21
2.93808e-21
2.09863e-23
5.7999e-21
3.14224e-21
7.7411e-23
6.65541e-23
1.09592e-21
1.07393e-22
2.34558e-21
1.50035e-22
2.43235e-22
3.25516e-22
4.18769e-21
5.594e-22
7.62573e-22
5.01404e-21
1.71653e-21
1.44551e-21
8.59928e-22
4.08388e-21
7.94199e-21
5.47552e-21
5.27966e-22
1.5763e-21
5.24637e-22
1.03535e-21
1.39985e-21
3.49751e-21
3.8703e-21
5.3968e-22
8.74931e-22
2.98668e-21
2.26345e-21
1.14308e-21
6.95249e-22
2.97646e-22
1.1765e-21
2.10977e-21
5.74149e-22
1.43955e-21
3.49883e-21
1.25861e-21
1.33901e-21
1.67631e-21
6.7334e-22
1.48854e-21
1.84104e-22
1.15891e-21
4.81251e-22
1.12334e-21
5.51841e-22
8.87618e-22
6.28607e-22
2.94162e-21
2.33307e-21
2.92447e-21
7.42936e-22
6.21079e-21
9.37442e-22
8.32603e-21
2.73399e-21
3.72708e-21
2.23163e-21
1.02949e-21
1.5735e-21
2.58245e-21
3.05883e-21
1.85199e-22
1.22897e-21
2.05861e-21
1.06323e-21
6.46585e-23
9.28923e-22
8.51942e-22
6.523e-21
4.16648e-23
6.55443e-21
5.17015e-21
2.03421e-21
1.29509e-21
4.27442e-21
6.0631e-21
7.72699e-22
3.53463e-21
4.19132e-24
2.17446e-21
1.59317e-21
3.39883e-21
6.80011e-22
3.50177e-21
1.13488e-21
3.13399e-21
9.3392e-22
6.22745e-22
2.14555e-21
9.20951e-22
3.8641e-21
4.93795e-22
5.06176e-21
1.98475e-21
4.77131e-22
2.66697e-21
8.5707e-22
1.13376e-22
2.51532e-22
6.687e-21
6.54455e-23
3.28028e-21
7.50608e-22
2.4563e-22
5.14469e-22
1.14337e-24
3.18732e-22
1.45549e-21
4.25883e-21
1.95631e-21
1.47196e-21
3.07348e-21
2.11031e-21
4.45678e-21
5.0038e-21
4.30619e-21
1.72603e-21
1.2667e-23
2.61514e-21
2.58231e-21
1.54728e-21
3.21893e-21
9.37393e-22
6.42045e-22
8.86875e-21
9.26061e-22
7.91315e-23
4.21662e-22
3.0927e-21
2.00367e-21
2.49421e-21
2.19381e-22
3.18984e-21
4.58234e-22
1.53924e-21
3.02937e-21
2.35336e-21
3.14039e-21
2.69105e-21
1.09759e-21
1.60983e-21
7.4122e-22
1.36347e-21
2.41731e-21
2.28352e-21
4.02733e-21
1.143e-21
2.79767e-21
1.31836e-21
6.29185e-22
6.47303e-22
1.46608e-21
1.16664e-21
1.53054e-21
1.01856e-21
2.05085e-21
1.03542e-21
7.61808e-22
1.78218e-21
2.98257e-21
1.21682e-21
3.22961e-22
4.94202e-21
3.59604e-22
5.23833e-21
5.18475e-21
1.15404e-20
5.84449e-22
5.67911e-23
7.57724e-22
1.44337e-21
2.5144e-21
1.05994e-21
3.18831e-21
1.88854e-21
1.47344e-22
2.27075e-22
5.79169e-23
2.01573e-24
4.81942e-21
1.24741e-21
7.85348e-22
1.26674e-20
6.22112e-21
2.44521e-21
5.34756e-21
2.52472e-21
1.94356e-21
5.4331e-22
5.12711e-22
1.68855e-21
1.43894e-22
1.76908e-22
2.52615e-22
1.65264e-21
1.99467e-21
1.20047e-21
8.39378e-21
1.31965e-21
1.72922e-21
9.13625e-22
6.01307e-22
4.20803e-23
1.53338e-21
2.74297e-22
6.26186e-22
1.60301e-21
3.78796e-22
3.37609e-21
4.32667e-22
3.27233e-21
6.58399e-21
3.35625e-22
1.86519e-22
1.22171e-21
4.28959e-22
5.48087e-22
2.47023e-21
1.81281e-21
1.70911e-21
2.53324e-22
2.75241e-21
2.85892e-21
7.35232e-22
7.78938e-22
2.49198e-21
1.46758e-21
2.70995e-22
1.1448e-21
3.26422e-21
5.27854e-21
9.14894e-22
9.66606e-22
5.04204e-22
1.56847e-21
5.63552e-21
2.16984e-21
5.57855e-23
3.15645e-21
2.7062e-21
3.97793e-22
3.40561e-22
5.39637e-22
2.73822e-21
9.11043e-21
2.32901e-21
1.91914e-22
2.49644e-21
2.02147e-22
1.13646e-21
3.51229e-22
3.88176e-21
5.16276e-21
5.7836e-21
9.64632e-22
1.22248e-21
6.85299e-21
6.41335e-22
1.08231e-22
3.08646e-22
7.75876e-22
5.01566e-21
7.97264e-22
1.52632e-21
1.57222e-21
8.05557e-21
1.06905e-21
1.7006e-22
8.14055e-21
4.33187e-22
2.77638e-21
3.6968e-21
6.96529e-21
1.3737e-21
3.09077e-21
4.03978e-22
1.45005e-21
5.6571e-22
4.38563e-22
1.27686e-22
2.02721e-23
2.76464e-21
2.25201e-21
4.05792e-21
1.46684e-21
1.75499e-21
1.00213e-21
6.21592e-21
8.51375e-22
1.77918e-21
7.452e-22
4.90202e-22
7.07625e-21
4.64653e-21
2.99901e-21
4.76216e-22
1.16898e-21
1.67797e-21
3.78248e-22
1.18203e-21
1.69634e-22
3.16711e-22
4.01383e-21
9.09811e-22
4.40672e-21
1.55688e-21
6.87495e-22
2.28579e-21
3.99563e-21
3.46499e-23
5.26886e-21
1.24993e-21
2.03616e-21
9.34656e-22
5.12297e-21
5.25451e-21
1.11636e-22
7.6645e-22
6.41067e-22
1.0377e-20
1.30232e-21
1.82348e-21
1.37371e-21
2.71521e-21
5.61932e-21
2.26821e-21
1.42515e-21
1.95663e-23
1.0954e-21
4.5686e-23
2.19245e-22
4.88082e-22
4.52743e-21
1.75368e-21
5.83172e-22
2.84756e-22
2.47962e-21
2.98326e-21
2.29834e-23
2.69573e-21
4.07554e-21
5.55112e-21
2.2381e-21
1.88683e-21
6.54799e-21
4.86385e-21
3.33575e-22
1.00739e-21
2.47725e-21
8.50252e-22
1.54812e-22
3.14452e-22
4.76294e-21
4.16879e-22
1.37204e-21
2.58625e-21
4.31869e-22
2.58762e-21
1.99061e-22
3.85263e-21
1.78419e-21
1.16259e-21
2.09243e-21
2.87694e-23
9.02824e-22
7.50651e-21
3.41292e-22
1.00615e-22
6.34253e-21
5.16453e-21
3.30951e-21
4.55812e-22
1.18493e-21
6.76796e-22
5.16595e-21
1.54584e-21
3.54511e-21
3.53379e-21
1.06099e-21
3.34647e-21
1.2611e-22
3.86234e-21
4.33881e-21
3.58809e-22
2.4051e-21
9.54736e-21
5.09109e-23
1.03477e-23
1.24232e-21
3.24579e-21
1.09601e-21
6.38729e-22
1.98906e-21
2.07016e-21
4.75863e-22
2.83395e-21
1.02406e-21
3.40589e-22
5.10063e-21
4.85134e-21
1.2723e-21
5.2317e-21
1.71466e-21
3.74299e-22
6.67809e-21
3.29555e-21
1.43926e-21
3.64007e-22
5.11413e-21
1.69462e-21
6.39838e-22
4.91892e-22
6.06235e-23
2.90728e-21
4.48964e-22
6.06757e-21
2.69717e-21
4.2022e-22
1.27224e-22
1.7026e-21
4.55551e-22
1.1702e-21
6.83237e-21
1.55501e-22
5.99369e-21
3.48833e-22
1.88465e-21
9.55395e-22
1.21938e-21
1.1875e-21
4.61464e-22
1.60289e-22
1.47125e-21
3.90803e-21
2.64348e-21
4.79912e-21
5.11903e-22
9.65511e-22
8.69231e-22
1.11947e-20
1.289e-21
3.15193e-21
5.70009e-22
4.75017e-21
1.85374e-21
6.13272e-23
1.05739e-21
4.3422e-22
2.8866e-22
2.39388e-21
1.67746e-22
4.97665e-21
1.63959e-21
4.8579e-21
1.95443e-21
1.70725e-21
9.50507e-23
9.09136e-22
4.70278e-21
6.57299e-21
1.70017e-21
3.69398e-22
2.41917e-22
7.3432e-22
4.88529e-22
5.61344e-23
2.28164e-21
2.66224e-21
1.17432e-21
1.29699e-21
3.7165e-21
2.21418e-21
3.50806e-21
2.52152e-22
3.92296e-21
2.92005e-22
2.87926e-22
1.362e-23
1.16413e-21
7.32009e-21
1.65849e-21
8.95837e-23
4.82713e-21
3.12392e-22
1.87365e-22
1.20581e-21
1.08614e-21
7.81039e-22
3.0665e-21
4.6639e-21
2.75229e-21
5.55487e-22
7.29213e-22
4.81496e-22
3.35679e-21
4.56441e-22
3.29761e-21
2.96717e-21
3.82139e-21
4.35554e-21
1.86613e-22
2.11795e-21
5.75615e-22
2.33106e-22
1.38982e-22
5.76292e-21
1.45309e-21
4.62231e-22
1.69162e-21
4.03304e-22
4.28012e-21
1.96646e-21
1.03475e-21
1.20036e-21
1.44194e-21
4.92631e-22
1.17634e-21
9.91155e-22
1.36799e-21
3.29116e-21
3.06353e-22
1.05824e-21
2.3597e-21
8.60804e-22
1.75514e-21
5.35303e-21
3.5417e-21
8.36539e-22
4.95908e-22
4.6695e-21
8.54854e-22
4.77295e-21
2.50383e-21
9.45413e-22
1.29505e-20
2.99284e-21
4.10112e-22
1.02587e-20
2.39966e-21
6.7907e-22
1.23816e-21
3.11045e-22
1.90438e-21
3.88863e-21
1.19342e-22
4.69393e-23
1.94207e-22
2.37096e-21
5.34994e-21
1.25598e-21
4.66732e-22
4.73659e-21
4.61562e-21
1.90849e-22
2.40756e-21
2.54053e-21
1.28358e-22
1.29625e-21
1.73294e-21
1.47258e-21
9.2699e-22
1.84233e-21
6.70625e-22
2.52163e-21
7.79197e-22
5.14991e-22
2.40426e-21
8.41243e-22
5.47377e-22
1.55384e-21
9.3936e-22
9.62116e-22
2.47662e-21
6.3439e-21
1.60154e-21
2.81395e-21
3.47387e-22
2.18594e-21
4.95898e-22
3.37257e-21
3.2149e-21
6.07655e-21
1.87043e-21
1.99326e-21
5.42867e-21
1.11351e-21
5.61301e-22
4.33113e-22
1.00751e-21
4.3784e-21
2.24702e-21
1.39503e-20
1.04001e-20
9.99159e-22
4.95777e-21
1.11232e-22
3.05097e-22
1.33039e-21
4.41547e-21
3.29009e-22
4.83962e-21
9.31463e-23
3.26331e-21
8.87175e-22
1.1071e-21
9.49774e-22
3.23453e-21
2.6679e-21
9.55901e-22
2.33171e-21
2.63258e-21
1.13732e-21
1.95461e-21
2.6719e-22
1.41907e-21
3.6251e-21
7.97057e-22
4.53241e-21
3.56512e-22
3.25555e-21
5.31261e-21
3.232e-21
3.80636e-21
7.95588e-22
2.78328e-21
1.39131e-22
2.19877e-21
2.01539e-21
2.03827e-21
8.29398e-22
1.13711e-21
1.05443e-21
9.18283e-22
1.32287e-21
3.71996e-21
2.58348e-21
1.85893e-21
4.01778e-21
3.00316e-21
3.2333e-21
2.10734e-21
1.89502e-21
1.72466e-21
7.67544e-23
3.01197e-21
2.0384e-22
5.5939e-21
2.02508e-21
9.39972e-22
8.72854e-22
3.25104e-21
1.19325e-23
3.0311e-21
9.14426e-21
9.10138e-22
2.96065e-21
1.97959e-21
1.67058e-21
2.27542e-21
6.9744e-22
4.47436e-22
1.55248e-22
4.4488e-21
2.56222e-21
9.78966e-22
2.19104e-21
8.10646e-22
1.01559e-21
3.19034e-21
1.16775e-21
5.33449e-22
1.99222e-21
5.21041e-22
3.15927e-21
5.89303e-21
5.8554e-21
1.99102e-21
2.73208e-21
6.39919e-22
1.68163e-22
1.76863e-21
4.956e-21
4.45336e-22
3.29139e-21
4.48834e-21
8.66761e-22
1.26687e-23
9.37113e-23
2.99313e-21
3.91208e-22
3.55763e-21
5.41324e-22
5.42177e-21
1.43836e-21
1.2326e-21
8.04001e-22
4.86237e-22
3.05207e-21
1.33543e-21
2.50189e-22
3.18427e-21
5.55727e-22
5.69764e-22
6.86864e-21
3.49497e-22
5.36135e-22
1.55463e-21
7.72735e-22
7.08053e-22
2.42848e-21
2.63272e-22
1.8119e-21
6.07027e-21
4.03495e-21
7.83401e-21
1.48644e-21
7.59646e-22
3.07914e-22
2.73477e-21
1.18276e-21
9.93487e-22
1.11035e-21
2.33291e-21
2.60486e-21
3.16205e-21
1.26483e-21
1.85397e-21
3.16572e-21
3.94589e-23
5.29802e-21
4.11406e-22
1.75841e-21
1.05208e-21
1.08192e-21
6.11119e-21
4.01226e-21
4.39497e-21
8.47569e-21
4.52305e-21
1.19121e-21
1.04881e-21
4.83337e-21
1.76718e-22
7.17542e-23
6.5481e-22
2.73992e-22
3.84873e-21
2.58383e-21
2.60056e-22
4.07788e-21
1.47895e-22
8.68959e-22
5.41674e-21
1.49734e-22
4.52716e-21
1.59064e-22
7.38476e-22
4.72197e-21
3.09774e-21
7.24211e-22
2.78214e-21
2.53734e-21
5.70347e-21
1.77854e-21
1.8324e-21
1.01743e-21
4.037e-22
2.36113e-22
1.65622e-21
1.48274e-21
1.84818e-22
4.98746e-22
5.36865e-21
2.46562e-21
1.24171e-21
6.10305e-22
1.81553e-22
1.54118e-21
1.83006e-21
2.80399e-21
2.24739e-21
3.26671e-22
1.12109e-21
3.33574e-22
1.87515e-21
1.09824e-21
6.46176e-21
6.16778e-23
7.31852e-22
2.05251e-22
4.6069e-21
3.10629e-21
7.90284e-23
2.95892e-21
1.67743e-21
3.0913e-22
3.64085e-22
8.29462e-21
4.61553e-21
8.05403e-23
1.35285e-21
1.93778e-21
2.06409e-23
1.93902e-21
7.79037e-22
9.50149e-22
2.22643e-23
1.35811e-21
4.52248e-22
1.3612e-21
9.87715e-22
2.44845e-21
9.36036e-22
1.6615e-21
1.1846e-21
2.00903e-22
3.91737e-22
3.41601e-21
3.88072e-22
2.04088e-21
4.00751e-21
6.35865e-21
6.58767e-21
3.82969e-21
6.74827e-21
3.64198e-22
6.72024e-21
3.91204e-21
3.17821e-21
1.85482e-23
1.93653e-21
4.05126e-22
3.19963e-22
1.28453e-21
1.75772e-22
3.86047e-21
1.07066e-21
4.21545e-22
7.87316e-21
1.8537e-22
4.50405e-21
4.45692e-21
5.46034e-22
6.13727e-21
3.95914e-21
4.89459e-21
5.48647e-21
5.94341e-22
3.07802e-21
2.25396e-22
4.30127e-21
1.34554e-21
4.50282e-21
1.04967e-21
1.64302e-22
3.62194e-22
2.1254e-21
3.18485e-22
3.66336e-22
6.26837e-22
2.60013e-21
8.47184e-22
2.92817e-21
1.61887e-22
4.18765e-21
4.50471e-23
7.99091e-21
7.77801e-22
3.99417e-21
2.81731e-21
2.75689e-21
1.44065e-21
6.86113e-22
7.52302e-22
4.52855e-21
3.62273e-22
2.13916e-21
7.97099e-22
2.61654e-21
7.99687e-22
1.93101e-21
5.65822e-22
7.39298e-22
7.2014e-22
3.48665e-21
3.17375e-21
2.95413e-21
5.53429e-24
1.212e-23
2.02134e-22
1.18003e-21
9.61422e-22
3.83482e-21
9.08866e-22
4.87768e-21
7.64201e-22
1.10837e-21
1.02371e-21
1.2579e-21
4.84922e-21
5.22116e-21
9.65356e-22
4.22331e-23
2.39978e-22
5.34053e-21
6.97881e-21
1.18606e-21
1.64066e-22
1.1509e-21
1.61186e-21
3.18186e-21
2.28053e-21
1.99047e-22
3.38499e-21
3.57852e-22
3.52338e-23
1.50495e-21
8.82194e-22
1.5754e-22
5.85551e-22
4.11514e-22
2.49099e-23
1.39304e-21
3.48771e-21
1.40426e-21
1.64041e-21
1.07875e-22
2.04753e-21
9.23489e-22
5.2577e-22
3.33839e-21
5.50697e-24
4.48757e-21
2.40961e-21
2.01586e-21
8.81792e-22
2.97103e-22
5.0613e-22
5.38971e-21
1.88603e-21
2.70996e-21
1.42941e-21
1.36184e-21
2.45112e-21
1.4286e-21
2.70422e-21
4.40669e-22
2.78054e-21
2.055e-21
2.38893e-23
1.48814e-21
9.40449e-22
1.38009e-21
2.42443e-21
1.87702e-21
8.86633e-22
1.14177e-21
5.63767e-21
9.11656e-22
2.30432e-23
7.5796e-21
3.90369e-21
1.77157e-21
3.02867e-21
6.33498e-21
1.08615e-21
2.48704e-21
3.61683e-21
1.77427e-21
3.28296e-24
2.15837e-21
4.65352e-21
2.68011e-21
2.76484e-21
9.961e-22
6.25867e-22
3.92301e-21
1.91827e-22
4.20914e-21
4.0512e-22
8.7216e-22
4.00001e-21
1.2584e-22
5.45807e-21
1.04799e-20
4.58911e-21
3.78794e-22
2.90034e-21
1.33537e-21
7.75144e-21
4.78061e-21
2.96345e-21
1.95518e-21
3.72141e-21
3.55609e-22
2.2539e-21
3.84155e-21
2.62679e-21
8.45437e-23
2.12262e-21
2.81661e-22
2.41677e-21
1.8368e-21
1.75003e-21
1.53277e-21
2.98635e-21
1.96611e-21
7.75232e-22
9.64897e-21
2.99648e-21
2.79201e-21
3.79943e-21
4.41162e-22
1.17988e-21
3.25428e-21
2.15116e-22
4.28531e-21
3.08142e-21
1.67307e-21
1.18214e-21
8.57213e-22
2.58355e-21
3.14223e-22
1.87469e-21
9.80925e-22
2.54524e-21
4.04789e-21
7.12065e-21
9.5395e-22
1.85619e-21
1.2317e-21
2.79549e-21
1.61662e-21
1.65655e-21
2.20341e-21
3.65524e-21
2.42102e-21
8.18413e-21
5.18945e-22
4.20198e-21
1.43937e-21
4.96099e-22
2.95219e-21
1.25093e-21
3.1035e-21
3.58405e-21
1.21636e-21
2.63153e-21
6.39623e-21
6.84591e-21
3.43075e-21
2.73767e-22
5.61857e-22
1.40863e-22
5.13438e-22
1.08198e-23
1.8135e-21
1.26697e-21
3.04884e-22
3.93042e-21
1.88048e-22
2.03439e-21
1.16092e-21
1.66293e-21
1.32345e-21
1.98187e-21
6.56002e-24
6.17145e-21
8.45543e-22
5.87409e-21
1.78125e-20
5.83225e-22
9.63617e-22
1.14267e-22
1.26731e-20
7.89728e-23
1.46689e-21
7.46197e-22
4.73594e-21
8.08089e-22
1.99991e-21
2.6899e-22
1.76541e-22
1.07557e-21
1.36592e-21
1.49269e-21
9.23773e-22
2.03401e-22
1.28059e-21
2.20964e-21
3.02073e-22
1.40146e-21
9.84338e-22
3.96706e-21
2.38368e-21
5.61529e-21
2.89958e-22
3.50541e-21
7.41111e-22
5.80311e-22
1.57235e-21
2.86549e-21
1.40066e-21
1.96222e-21
6.23506e-22
6.68436e-21
7.40323e-21
1.18836e-21
3.07301e-22
1.4129e-21
7.11222e-22
4.48735e-22
2.3717e-21
4.59218e-22
4.94784e-21
7.71132e-22
2.58619e-23
1.23887e-21
3.30945e-22
1.90916e-21
1.40244e-21
1.40268e-21
5.38548e-22
2.07469e-21
3.57673e-21
1.74974e-21
3.68652e-21
4.64491e-21
1.61796e-21
3.03865e-21
1.51961e-21
2.28281e-21
1.22697e-21
1.36116e-21
1.68401e-21
5.67125e-21
1.89565e-21
6.05395e-21
2.07202e-21
8.66538e-22
5.85634e-21
1.98524e-21
7.25599e-21
2.89487e-21
3.18889e-21
4.98608e-21
2.08853e-21
2.51044e-21
1.452e-21
9.69623e-22
7.86871e-21
2.51614e-21
6.65496e-22
4.47298e-21
6.65309e-21
5.613e-22
1.84437e-21
3.77368e-21
5.78783e-22
7.41863e-21
3.35564e-21
1.44835e-21
2.70269e-21
2.17527e-21
1.56862e-21
5.87927e-22
1.09367e-20
1.08319e-21
3.86732e-21
3.62376e-22
1.11272e-21
1.42337e-21
3.83853e-23
1.74887e-21
7.56346e-22
9.24913e-21
1.82165e-21
4.66643e-21
3.54093e-21
2.2769e-21
5.8752e-22
9.46533e-22
6.85757e-22
2.06372e-21
1.34029e-21
1.81517e-21
4.6908e-22
1.69261e-21
4.00554e-22
6.86377e-21
1.60528e-21
2.34031e-21
2.57353e-21
1.53609e-21
2.55794e-21
2.89382e-21
8.64955e-22
1.87626e-21
1.15799e-21
3.07378e-22
1.03059e-21
7.01118e-21
3.16233e-21
1.04859e-23
2.9088e-21
8.34884e-22
1.45728e-23
1.41892e-21
2.56563e-22
5.49842e-23
7.46088e-21
2.21067e-21
1.7142e-21
7.64274e-21
7.46543e-22
7.47774e-22
4.43798e-22
4.68753e-21
1.06405e-21
1.23524e-21
4.85408e-21
1.73976e-21
2.10028e-21
1.94509e-22
8.32386e-21
1.18221e-21
3.57474e-22
2.24191e-21
4.57466e-22
3.14371e-21
2.29504e-23
6.58361e-21
2.71254e-21
2.45225e-23
2.15765e-22
3.72619e-22
1.00222e-21
1.0191e-21
6.87604e-21
4.38235e-22
1.3607e-21
4.67786e-21
1.58374e-22
1.35277e-21
8.52993e-21
1.53377e-21
2.77241e-21
1.03353e-22
1.47617e-22
6.02318e-22
2.55364e-21
1.04532e-22
1.32332e-21
1.47276e-24
1.33867e-20
9.18758e-22
3.08819e-22
3.0834e-21
1.19423e-22
6.85213e-24
1.45493e-21
7.83141e-21
1.66697e-21
1.16332e-21
3.23222e-21
3.35398e-23
7.45693e-22
5.04349e-21
1.10362e-21
3.05187e-21
2.03277e-21
2.43308e-21
3.08461e-21
2.3383e-21
2.72393e-21
3.73171e-22
2.55018e-21
5.32427e-22
5.11028e-22
3.87795e-22
6.91277e-21
2.41254e-21
5.28483e-23
8.12331e-22
7.03119e-22
2.58729e-21
3.82635e-21
1.01545e-21
4.74835e-22
2.65437e-21
4.10484e-21
2.80442e-23
6.71802e-22
3.59204e-22
1.02127e-20
2.72979e-21
2.73618e-21
3.1436e-21
5.68079e-21
1.61913e-21
6.08467e-22
9.73953e-22
2.20508e-21
1.85571e-22
1.20431e-21
7.12721e-22
5.59769e-21
2.72297e-21
8.65103e-21
2.67383e-21
6.66436e-22
8.20058e-21
1.87063e-21
1.03006e-21
5.1088e-21
8.86251e-22
1.28771e-22
2.0976e-21
3.62221e-22
3.10424e-21
1.41926e-21
1.32808e-21
1.3873e-21
8.62907e-22
9.74772e-23
7.06286e-22
1.32483e-22
1.36984e-21
2.50282e-21
2.89108e-21
2.79315e-21
2.44663e-21
2.69563e-21
7.20027e-21
2.62487e-21
3.29767e-21
2.21568e-22
1.03578e-21
2.90283e-21
1.03197e-20
1.78532e-21
3.91789e-21
7.72826e-21
5.43404e-21
3.00201e-22
8.81649e-22
3.90821e-23
3.2111e-21
3.37862e-23
4.20498e-22
2.26666e-21
1.51488e-22
9.58628e-22
4.45463e-21
1.70025e-22
1.09996e-21
3.25754e-21
3.46254e-21
6.44807e-21
6.85631e-22
5.40523e-21
1.06027e-21
2.66692e-21
5.33344e-21
5.93316e-22
1.85173e-22
4.44046e-22
2.44791e-21
4.39132e-21
1.80309e-21
2.08927e-21
1.52047e-22
1.09725e-21
8.16248e-21
1.00592e-21
2.30908e-22
5.20101e-22
6.71776e-22
1.63572e-21
3.67646e-21
1.56929e-21
2.50333e-22
4.57893e-21
1.63121e-21
1.054e-21
1.57737e-21
1.63114e-21
6.36144e-21
2.33323e-21
6.00093e-23
5.95055e-21
6.40279e-21
5.68198e-21
2.02824e-21
2.05396e-21
1.49666e-21
5.4993e-21
5.55602e-22
1.47643e-21
4.05347e-22
3.18089e-21
1.38851e-22
6.7399e-22
7.33489e-23
2.07887e-21
8.82223e-22
1.23901e-21
2.09983e-21
3.46542e-21
7.6629e-22
3.79984e-21
1.04024e-21
9.64644e-22
3.33758e-24
8.71493e-23
4.42078e-22
2.005e-22
8.82605e-22
3.72291e-22
1.93674e-21
6.92297e-21
2.39688e-21
2.76635e-21
3.64019e-21
1.28013e-21
2.89921e-21
2.29461e-21
2.79597e-21
1.52599e-21
2.37032e-22
2.40919e-21
1.14298e-21
1.32379e-21
1.1528e-21
6.12269e-22
3.54784e-21
1.14657e-20
1.74641e-22
1.3697e-20
1.04279e-21
1.38276e-21
5.17362e-22
3.35046e-21
1.57572e-21
4.02569e-21
4.22685e-22
3.75476e-21
2.25574e-21
2.77184e-21
1.3401e-21
1.11336e-21
1.82066e-21
2.01367e-21
2.62447e-22
4.91286e-21
2.75058e-21
1.79106e-21
6.14065e-22
2.79809e-23
1.05018e-21
2.52663e-23
4.58298e-21
2.82735e-21
1.0417e-21
4.11122e-23
2.74567e-22
3.2395e-21
1.01286e-21
3.68134e-21
9.8549e-23
2.57368e-21
1.09646e-21
8.15627e-22
4.57344e-21
1.75837e-22
1.54545e-21
8.54709e-21
2.63627e-21
6.81403e-22
6.25389e-22
4.43008e-21
5.93907e-22
1.05739e-22
9.81107e-22
3.69637e-21
1.21316e-21
7.71968e-21
2.5306e-22
3.27958e-21
1.89122e-22
1.05459e-21
1.80584e-22
4.93036e-22
4.93447e-22
3.72544e-22
3.06027e-22