/*--------------------------------*- C++ -*----------------------------------*\
  =========                 |
  \\      /  F ield         | OpenFOAM: The Open Source CFD Toolbox
   \\    /   O peration     | Website:  https://openfoam.org
    \\  /    A nd           | Version:  7
     \\/     M anipulation  |
\*---------------------------------------------------------------------------*/
FoamFile
{
    version     2.0;
    format      ascii;
    class       Cloud<passiveParticle>;
    location    "0/lagrangian/dsmc";
    object      positions;
}
// * * * * * * * * * * * * * * * * * * * * * * * * * * * * * * * * * * * * * //

9220
(
(0.472325 0.264206 0.222413 0.0410552) 0 0 1
(0.0708682 0.123887 0.130579 0.674666) 0 0 1
(0.341502 0.0071301 0.606347 0.0450212) 0 0 1
(0.490771 0.358981 0.0689067 0.0813412) 0 0 1
(0.0849513 0.272974 0.514758 0.127317) 0 0 1
(0.234553 0.221739 0.124062 0.419647) 0 0 1
(0.0437087 0.0348906 0.079549 0.841852) 0 0 2
(0.399784 0.0113067 0.321132 0.267777) 0 0 2
(0.232921 0.0459458 0.285433 0.4357) 0 0 2
(0.451504 0.134531 0.308585 0.105381) 0 0 2
(0.0600558 0.312884 0.0169415 0.610119) 0 0 2
(0.0829027 0.459748 0.247866 0.209483) 0 0 2
(0.0381127 0.275053 0.389358 0.297476) 0 0 2
(0.0616471 0.148376 0.496209 0.293768) 0 125 1
(0.615442 0.195947 0.0219933 0.166618) 0 125 1
(0.367005 0.0253305 0.286964 0.3207) 0 125 1
(0.632471 0.0773052 0.23322 0.0570039) 0 125 1
(0.387829 0.332509 0.17361 0.106052) 0 125 1
(0.171046 0.12243 0.489243 0.217282) 0 125 1
(0.219104 0.692968 0.0717357 0.0161919) 0 125 2
(0.0448335 0.300187 0.182208 0.472771) 0 125 2
(0.54187 0.186272 0.236201 0.0356572) 0 125 2
(0.322719 0.259601 0.330087 0.0875923) 0 125 2
(0.188469 0.166753 0.534736 0.110042) 0 125 2
(0.479949 0.384458 0.0921853 0.0434076) 0 125 2
(0.468261 0.165166 0.193345 0.173227) 0 250 1
(0.370458 0.275802 0.170464 0.183276) 0 250 1
(0.74414 0.0292438 0.00700121 0.219615) 0 250 1
(0.0649724 0.345481 0.579474 0.010072) 0 250 1
(0.0765765 0.0264885 0.158957 0.737978) 0 250 1
(0.289997 0.0312109 0.0101905 0.668601) 0 250 1
(0.507194 0.204262 0.112337 0.176208) 0 250 2
(0.184531 0.209498 0.26481 0.341161) 0 250 2
(0.114206 0.0242043 0.74251 0.11908) 0 250 2
(0.178531 0.136702 0.0398352 0.644932) 0 250 2
(0.305671 0.394843 0.0709784 0.228507) 0 250 2
(0.259853 0.112831 0.458163 0.169153) 0 250 2
(0.00767682 0.218993 0.158234 0.615097) 0 375 1
(0.24763 0.231783 0.00636783 0.514219) 0 375 1
(0.291369 0.239541 0.308105 0.160985) 0 375 1
(0.0565079 0.405192 0.318899 0.219401) 0 375 1
(0.053844 0.488213 0.000206994 0.457736) 0 375 1
(0.00874556 0.18007 0.324396 0.486789) 0 375 1
(0.529973 0.0248626 0.288162 0.157003) 0 375 2
(0.297906 0.0356809 0.069817 0.596597) 0 375 2
(0.125493 0.244135 0.452838 0.177534) 0 375 2
(0.297049 0.409738 0.20848 0.0847325) 0 375 2
(0.37074 0.0432927 0.374542 0.211425) 0 375 2
(0.117518 0.208825 0.155278 0.518379) 0 375 2
(0.145161 0.608957 0.0889701 0.156912) 0 500 1
(0.0638557 0.0996612 0.30725 0.529234) 0 500 1
(0.0225784 0.0458474 0.923122 0.00845174) 0 500 1
(0.446154 0.0937025 0.109333 0.35081) 0 500 1
(0.397708 0.0476308 0.23656 0.318101) 0 500 1
(0.482591 0.16661 0.161038 0.189761) 0 500 1
(0.313542 0.22239 0.135166 0.328902) 0 500 2
(0.1429 0.0779143 0.538518 0.240667) 0 500 2
(0.135554 0.129695 0.485702 0.249049) 0 500 2
(0.0250448 0.780911 0.128632 0.065412) 0 500 2
(0.557981 0.22819 0.141486 0.0723431) 0 500 2
(0.117349 0.331041 0.452956 0.0986553) 0 500 2
(0.183419 0.0351618 0.447745 0.333675) 0 500 2
(0.3185 0.252384 0.22998 0.199137) 0 625 2
(0.0497956 0.604629 0.164558 0.181018) 0 625 2
(0.175271 0.567076 0.0372914 0.220362) 0 625 2
(0.106712 0.536276 0.205127 0.151885) 0 625 2
(0.0133701 0.706145 0.156088 0.124397) 0 625 2
(0.185115 0.316057 0.177587 0.32124) 0 625 2
(0.660635 0.172299 0.0367269 0.130339) 0 625 1
(0.173503 0.389457 0.175787 0.261253) 0 625 1
(0.187952 0.251737 0.099802 0.46051) 0 625 1
(0.298351 0.239431 0.223204 0.239015) 0 625 1
(0.08289 0.380734 0.503655 0.0327211) 0 625 1
(0.439207 0.0436743 0.301423 0.215695) 0 625 1
(0.0207549 0.173079 0.215654 0.590513) 1 1 1
(0.022235 0.112146 0.484251 0.381368) 1 1 1
(0.600568 0.181989 0.0772083 0.140234) 1 1 1
(0.0802112 0.88188 0.0374885 0.000420506) 1 1 1
(0.0726323 0.554017 0.30775 0.0655999) 1 1 1
(0.00825542 0.308466 0.500895 0.182383) 1 1 1
(0.719517 0.206785 0.0387052 0.0349926) 1 1 2
(0.31233 0.261168 0.275853 0.150649) 1 1 2
(0.0639176 0.0335836 0.106046 0.796453) 1 1 2
(0.238421 0.259683 0.403729 0.0981665) 1 1 2
(0.05795 0.0676846 0.633239 0.241127) 1 1 2
(0.0572794 0.129032 0.219947 0.593742) 1 1 2
(0.144902 0.104621 0.255998 0.494479) 1 126 1
(0.715969 0.0189014 0.0261928 0.238937) 1 126 1
(0.44715 0.189344 0.0377273 0.325778) 1 126 1
(0.0502019 0.418831 0.0391746 0.491792) 1 126 1
(0.169596 0.119774 0.154341 0.556289) 1 126 1
(0.130259 0.489066 0.374421 0.0062542) 1 126 1
(0.180947 0.10065 0.151206 0.567197) 1 126 1
(0.106468 0.823807 0.0509044 0.0188204) 1 126 2
(0.112111 0.350083 0.31837 0.219437) 1 126 2
(0.137362 0.383502 0.0797051 0.399431) 1 126 2
(0.187116 0.172519 0.510967 0.129398) 1 126 2
(0.296953 0.0689654 0.0288479 0.605233) 1 126 2
(0.00317572 0.705543 0.236704 0.0545782) 1 126 2
(0.0291547 0.141039 0.143239 0.686568) 1 251 1
(0.304956 0.242365 0.206302 0.246377) 1 251 1
(0.0979388 0.0947696 0.240079 0.567212) 1 251 1
(0.0364168 0.344813 0.489022 0.129748) 1 251 1
(0.0407635 0.487487 0.0437561 0.427993) 1 251 1
(0.0775059 0.257191 0.628747 0.0365557) 1 251 1
(0.071504 0.328454 0.503656 0.0963854) 1 251 1
(0.418124 0.199116 0.202618 0.180142) 1 251 2
(0.0161223 0.0700298 0.495643 0.418204) 1 251 2
(0.128673 0.560227 0.298818 0.0122826) 1 251 2
(0.324951 0.0294437 0.158299 0.487306) 1 251 2
(0.107344 0.046301 0.443797 0.402558) 1 251 2
(0.0272768 0.141039 0.258406 0.573278) 1 251 2
(0.438419 0.437505 0.113026 0.0110489) 1 376 1
(0.144966 0.423123 0.382437 0.0494737) 1 376 1
(0.0331238 0.282325 0.0509355 0.633615) 1 376 1
(0.0553849 0.364208 0.323943 0.256464) 1 376 1
(0.134208 0.0417452 0.707771 0.116276) 1 376 1
(0.406036 0.441713 0.0798713 0.0723791) 1 376 1
(0.402394 0.0407491 0.233674 0.323183) 1 376 2
(0.453141 0.190568 0.146703 0.209588) 1 376 2
(0.150726 0.044393 0.202467 0.602414) 1 376 2
(0.318188 0.279771 0.0339608 0.36808) 1 376 2
(0.220869 0.370692 0.0273759 0.381062) 1 376 2
(0.325161 0.293769 0.019439 0.361631) 1 376 2
(0.707768 0.0965123 0.00983207 0.185887) 1 501 1
(0.101636 0.594219 0.224583 0.0795609) 1 501 1
(0.296734 0.126357 0.475942 0.100967) 1 501 1
(0.0118142 0.406324 0.259151 0.322711) 1 501 1
(0.132381 0.437777 0.083986 0.345855) 1 501 1
(0.242492 0.210944 0.049136 0.497428) 1 501 1
(0.0970076 0.247429 0.10799 0.547574) 1 501 2
(0.407106 0.39646 0.15541 0.0410242) 1 501 2
(0.11584 0.0395737 0.567593 0.276993) 1 501 2
(0.0964383 0.291886 0.147986 0.46369) 1 501 2
(0.0873799 0.20348 0.461343 0.247798) 1 501 2
(0.477899 0.51679 0.00222505 0.00308616) 1 501 2
(0.27759 0.245355 0.245992 0.231064) 1 0 1
(0.313214 0.0472095 0.116095 0.523481) 1 0 1
(0.04209 0.339624 0.260156 0.35813) 1 0 1
(0.146641 0.341915 0.145676 0.365767) 1 0 1
(0.0291994 0.517045 0.419916 0.0338395) 1 0 1
(0.00832521 0.270859 0.372949 0.347867) 1 0 1
(0.209715 0.286878 0.388346 0.115061) 1 0 2
(0.141736 0.290572 0.140794 0.426898) 1 0 2
(0.326902 0.451574 0.0483824 0.173141) 1 0 2
(0.138373 0.0446816 0.717174 0.0997715) 1 0 2
(0.0758522 0.305187 0.189947 0.429014) 1 0 2
(0.129144 0.422715 0.15778 0.290361) 1 0 2
(0.522855 0.394278 0.0521307 0.0307363) 2 2 1
(0.305277 0.477682 0.115314 0.101727) 2 2 1
(0.02813 0.0203328 0.800785 0.150752) 2 2 1
(0.118577 0.0254673 0.240084 0.615871) 2 2 1
(0.0228926 0.182346 0.439697 0.355064) 2 2 1
(0.0988178 0.168766 0.38351 0.348906) 2 2 1
(0.329174 0.556115 0.0606012 0.0541094) 2 2 2
(0.00604698 0.357822 0.0854266 0.550705) 2 2 2
(0.0205239 0.307819 0.489264 0.182393) 2 2 2
(0.308363 0.13982 0.491435 0.0603816) 2 2 2
(0.363964 0.221682 0.253122 0.161232) 2 2 2
(0.161787 0.00427033 0.439721 0.394222) 2 2 2
(0.38451 0.269002 0.0455232 0.300964) 2 127 1
(0.651287 0.0799151 0.187715 0.0810829) 2 127 1
(0.186256 0.195423 0.495186 0.123135) 2 127 1
(0.0235258 0.225965 0.00835141 0.742158) 2 127 1
(0.295639 0.39777 0.296554 0.0100362) 2 127 1
(0.286317 0.19586 0.186643 0.33118) 2 127 1
(0.146295 0.484283 0.236663 0.132759) 2 127 1
(0.0638263 0.116783 0.356276 0.463114) 2 127 2
(0.372269 0.410621 0.063222 0.153888) 2 127 2
(0.104865 0.197752 0.197104 0.500279) 2 127 2
(0.0169792 0.532162 0.445933 0.00492535) 2 127 2
(0.205286 0.220722 0.317861 0.256131) 2 127 2
(0.0293052 0.191895 0.0182683 0.760532) 2 127 2
(0.0252375 0.568486 0.0406161 0.36566) 2 252 1
(0.245707 0.0616843 0.250327 0.442281) 2 252 1
(0.392439 0.366564 0.220441 0.0205558) 2 252 1
(0.192477 0.233676 0.41672 0.157128) 2 252 1
(0.0647016 0.485193 0.183307 0.266798) 2 252 1
(0.0346625 0.737501 0.220651 0.00718589) 2 252 1
(0.542599 0.0211564 0.430729 0.00551625) 2 252 2
(0.110813 0.0276817 0.332958 0.528547) 2 252 2
(0.0920401 0.29472 0.590012 0.0232274) 2 252 2
(0.0437376 0.384622 0.41921 0.15243) 2 252 2
(0.102663 0.104247 0.312551 0.480539) 2 252 2
(0.125362 0.22518 0.645861 0.00359732) 2 252 2
(0.465784 0.0102343 0.426954 0.0970283) 2 377 1
(0.506704 0.255484 0.0804609 0.157351) 2 377 1
(0.00656758 0.468007 0.434562 0.0908628) 2 377 1
(0.768139 0.0494029 0.110839 0.0716185) 2 377 1
(0.288167 0.230543 0.190852 0.290438) 2 377 1
(0.157128 0.0814079 0.475976 0.285488) 2 377 1
(0.0979545 0.1559 0.0846576 0.661488) 2 377 1
(0.406523 0.310325 0.190342 0.0928101) 2 377 2
(0.00674429 0.638178 0.15618 0.198898) 2 377 2
(0.144107 0.0937193 0.368242 0.393932) 2 377 2
(0.144091 0.0984347 0.476597 0.280877) 2 377 2
(0.0786274 0.384758 0.00371034 0.532904) 2 377 2
(0.190074 0.286071 0.0127859 0.511069) 2 377 2
(0.512939 0.0591415 0.225387 0.202533) 2 377 2
(0.411479 0.398233 0.146145 0.044143) 2 502 1
(0.0822964 0.184845 0.431425 0.301433) 2 502 1
(0.0955989 0.110023 0.166037 0.628341) 2 502 1
(0.127887 0.0284601 0.656126 0.187527) 2 502 1
(0.0262661 0.0211882 0.172787 0.779759) 2 502 1
(0.0861512 0.372651 0.455657 0.0855415) 2 502 1
(0.312703 0.297707 0.198713 0.190877) 2 502 2
(0.227676 0.373915 0.370783 0.0276256) 2 502 2
(0.267856 0.378265 0.305485 0.0483941) 2 502 2
(0.0530116 0.121582 0.642015 0.183392) 2 502 2
(0.573165 0.246568 0.0156862 0.164581) 2 502 2
(0.0710166 0.449522 0.23865 0.240811) 2 502 2
(0.521744 0.0950191 0.0246479 0.358589) 2 1 1
(0.0613262 0.00685941 0.761634 0.17018) 2 1 1
(0.0661943 0.146207 0.784137 0.00346208) 2 1 1
(0.432289 0.289946 0.196883 0.0808822) 2 1 1
(0.0295072 0.571607 0.181237 0.217648) 2 1 1
(0.176858 0.116372 0.541674 0.165095) 2 1 1
(0.107896 0.0743822 0.609178 0.208543) 2 1 2
(0.0588594 0.0982777 0.547447 0.295416) 2 1 2
(0.401528 0.140922 0.0803784 0.377172) 2 1 2
(0.429876 0.00525286 0.193087 0.371784) 2 1 2
(0.423092 0.325381 0.0727453 0.178782) 2 1 2
(0.222041 0.0339279 0.162167 0.581864) 2 1 2
(0.0339451 0.654486 0.287711 0.0238587) 2 1 2
(0.507296 0.144301 0.0194872 0.328916) 3 3 1
(0.395601 0.418117 0.170269 0.0160129) 3 3 1
(0.434515 0.0871381 0.432789 0.0455575) 3 3 1
(0.315719 0.10935 0.421527 0.153404) 3 3 1
(0.000800953 0.350219 0.464463 0.184517) 3 3 1
(0.157022 0.601768 0.142837 0.0983726) 3 3 1
(0.00682936 0.170911 0.654778 0.167482) 3 3 2
(0.42925 0.443586 0.111894 0.0152704) 3 3 2
(0.298821 0.152079 0.0914211 0.457679) 3 3 2
(0.815815 0.064067 0.0421042 0.0780135) 3 3 2
(0.420535 0.00387189 0.30891 0.266683) 3 3 2
(0.444143 0.0547915 0.222819 0.278246) 3 3 2
(0.206676 0.221769 0.0683553 0.503199) 3 128 1
(0.00671373 0.538251 0.0228694 0.432166) 3 128 1
(0.0409726 0.763079 0.0185247 0.177423) 3 128 1
(0.154183 0.284574 0.47367 0.0875736) 3 128 1
(0.217246 0.278506 0.0672789 0.436968) 3 128 1
(0.12791 0.115256 0.585615 0.171218) 3 128 1
(0.0627611 0.244737 0.623466 0.069036) 3 128 1
(0.437784 0.0094595 0.0116219 0.541135) 3 128 2
(0.0821902 0.187216 0.528209 0.202385) 3 128 2
(0.0210555 0.0842755 0.613024 0.281645) 3 128 2
(0.0261859 0.689431 0.246606 0.0377773) 3 128 2
(0.112763 0.421121 0.132263 0.333852) 3 128 2
(0.010983 0.352881 0.369391 0.266745) 3 128 2
(0.488903 0.0584174 0.105172 0.347508) 3 253 1
(0.00955762 0.0912845 0.35074 0.548418) 3 253 1
(0.415814 0.0814176 0.0995457 0.403222) 3 253 1
(0.0174421 0.886152 0.0414379 0.054968) 3 253 1
(0.470032 0.419952 0.10288 0.00713527) 3 253 1
(0.325482 0.104238 0.562316 0.00796447) 3 253 1
(0.0850905 0.222522 0.238493 0.453894) 3 253 2
(0.15984 0.222218 0.0258944 0.592047) 3 253 2
(0.151758 0.0191159 0.166167 0.662959) 3 253 2
(0.218661 0.180179 0.216304 0.384856) 3 253 2
(0.121902 0.290287 0.234872 0.352938) 3 253 2
(0.056902 0.08812 0.115312 0.739666) 3 253 2
(0.146293 0.316088 0.491638 0.0459812) 3 253 2
(0.408851 0.04837 0.495254 0.0475255) 3 378 1
(0.216786 0.020615 0.553364 0.209235) 3 378 1
(0.238557 0.586527 0.0163384 0.158577) 3 378 1
(0.195966 0.116402 0.422197 0.265435) 3 378 1
(0.0691091 0.157022 0.0778143 0.696055) 3 378 1
(0.465065 0.0273542 0.451911 0.0556705) 3 378 1
(0.208439 0.312962 0.336382 0.142216) 3 378 2
(0.0289868 0.0692762 0.355873 0.545864) 3 378 2
(0.0640691 0.148394 0.660441 0.127096) 3 378 2
(0.310034 0.0377053 0.403994 0.248266) 3 378 2
(0.578218 0.200513 0.0952793 0.12599) 3 378 2
(0.193734 0.279899 0.0243697 0.501998) 3 378 2
(0.403227 0.0570767 0.538559 0.00113663) 3 503 1
(0.313192 0.158318 0.38871 0.13978) 3 503 1
(0.14666 0.110562 0.730085 0.0126933) 3 503 1
(0.498926 0.259168 0.0424252 0.19948) 3 503 1
(0.146691 0.413636 0.234447 0.205227) 3 503 1
(0.568623 0.206161 0.213047 0.0121689) 3 503 1
(0.355222 0.0426713 0.123104 0.479003) 3 503 2
(0.739545 0.08368 0.062917 0.113858) 3 503 2
(0.773949 0.121235 0.012304 0.0925111) 3 503 2
(0.167604 0.619557 0.186137 0.0267027) 3 503 2
(0.616028 0.017611 0.0803525 0.286009) 3 503 2
(0.186127 0.0683172 0.199024 0.546531) 3 503 2
(0.212826 0.105023 0.499443 0.182708) 3 2 1
(0.00695188 0.366068 0.625872 0.00110834) 3 2 1
(0.0206536 0.0372246 0.88175 0.0603723) 3 2 1
(0.0728092 0.335739 0.116037 0.475415) 3 2 1
(0.772077 0.0529131 0.112571 0.0624383) 3 2 1
(0.294788 0.21104 0.0196826 0.474489) 3 2 1
(0.152446 0.32458 0.487043 0.0359303) 3 2 2
(0.171097 0.0603109 0.119168 0.649424) 3 2 2
(0.219694 0.0439984 0.2295 0.506807) 3 2 2
(0.615949 0.0126979 0.0556238 0.315729) 3 2 2
(0.599579 0.0227708 0.19515 0.1825) 3 2 2
(0.333591 0.0154192 0.38909 0.2619) 3 2 2
(0.145754 0.585611 0.205054 0.0635805) 4 4 1
(0.00887875 0.268416 0.235502 0.487204) 4 4 1
(0.531602 0.206774 0.0951468 0.166477) 4 4 1
(0.722064 0.0171258 0.115374 0.145436) 4 4 1
(0.0758958 0.132683 0.755258 0.0361634) 4 4 1
(0.102613 0.693712 0.203327 0.000348601) 4 4 1
(0.0407949 0.227299 0.0660857 0.665821) 4 4 2
(0.00538078 0.231407 0.428945 0.334267) 4 4 2
(0.48831 0.356223 0.0724871 0.0829796) 4 4 2
(0.295693 0.250306 0.185662 0.26834) 4 4 2
(0.253919 0.139585 0.480784 0.125713) 4 4 2
(0.00691482 0.281731 0.299852 0.411503) 4 4 2
(0.193881 0.223966 0.159052 0.4231) 4 129 1
(0.0355952 0.177676 0.371208 0.415521) 4 129 1
(0.105638 0.21333 0.142279 0.538752) 4 129 1
(0.0636458 0.109003 0.0498857 0.777466) 4 129 1
(0.0215724 0.588385 0.207542 0.182501) 4 129 1
(0.0925132 0.361549 0.0705816 0.475356) 4 129 1
(0.104032 0.484013 0.356412 0.0555431) 4 129 2
(0.175569 0.376831 0.226117 0.221483) 4 129 2
(0.445167 0.129398 0.19326 0.232175) 4 129 2
(0.00178781 0.0397436 0.950199 0.00826997) 4 129 2
(0.463645 0.0337833 0.209044 0.293528) 4 129 2
(0.268131 0.495242 0.161537 0.0750889) 4 129 2
(0.0978372 0.509018 0.229823 0.163321) 4 254 1
(0.369122 0.0408535 0.510879 0.0791458) 4 254 1
(0.133291 0.151214 0.0246013 0.690893) 4 254 1
(0.259683 0.166451 0.300264 0.273602) 4 254 1
(0.381977 0.386004 0.105811 0.126208) 4 254 1
(0.546929 0.239082 0.0554888 0.1585) 4 254 1
(0.0244879 0.113028 0.250174 0.61231) 4 254 1
(0.206042 0.331163 0.0703567 0.392438) 4 254 2
(0.351711 0.0748187 0.475005 0.0984654) 4 254 2
(0.505319 0.15026 0.0969633 0.247458) 4 254 2
(0.148648 0.486218 0.336477 0.0286567) 4 254 2
(0.231558 0.348616 0.335158 0.0846677) 4 254 2
(0.373117 0.0197126 0.11583 0.49134) 4 254 2
(0.501383 0.263153 0.159425 0.0760387) 4 379 1
(0.0155103 0.482076 0.136812 0.365602) 4 379 1
(0.179728 0.230516 0.376154 0.213602) 4 379 1
(0.251595 0.0669254 0.587557 0.0939235) 4 379 1
(0.0386171 0.499994 0.0608882 0.400501) 4 379 1
(0.656406 0.12596 0.0181039 0.19953) 4 379 1
(0.0781094 0.361599 0.540343 0.0199482) 4 379 2
(0.0716133 0.268253 0.278202 0.381931) 4 379 2
(0.067016 0.468608 0.127378 0.336998) 4 379 2
(0.216723 0.240064 0.364439 0.178773) 4 379 2
(0.223752 0.0599087 0.0789952 0.637344) 4 379 2
(0.254586 0.0526018 0.635111 0.0577013) 4 379 2
(0.500022 0.0164996 0.32646 0.157019) 4 504 1
(0.366499 0.128041 0.439318 0.0661421) 4 504 1
(0.239752 0.102144 0.491208 0.166896) 4 504 1
(0.0913824 0.0220214 0.376441 0.510155) 4 504 1
(0.155342 0.447008 0.0960282 0.301621) 4 504 1
(0.559446 0.0968603 0.339576 0.0041181) 4 504 1
(0.095658 0.353689 0.28916 0.261492) 4 504 1
(0.671002 0.0473464 0.112436 0.169216) 4 504 2
(0.0472634 0.467117 0.0291817 0.456438) 4 504 2
(0.207978 0.018035 0.0458825 0.728104) 4 504 2
(0.0875859 0.0145604 0.694848 0.203006) 4 504 2
(0.00973561 0.164728 0.403487 0.422049) 4 504 2
(0.0878941 0.118399 0.527427 0.266279) 4 504 2
(0.396807 0.263149 0.0374173 0.302627) 4 3 1
(0.290491 0.00431329 0.607574 0.0976221) 4 3 1
(0.290739 0.320031 0.370149 0.0190806) 4 3 1
(0.304049 0.391986 0.062763 0.241202) 4 3 1
(0.116971 0.0823932 0.287704 0.512932) 4 3 1
(0.152731 0.0853711 0.263736 0.498162) 4 3 1
(0.246748 0.000142738 0.00274134 0.750368) 4 3 2
(0.0471426 0.049889 0.464745 0.438223) 4 3 2
(0.525384 0.0415653 0.177821 0.25523) 4 3 2
(0.429103 0.460452 0.0328354 0.0776102) 4 3 2
(0.0425622 0.150629 0.692955 0.113854) 4 3 2
(0.142433 0.101313 0.17175 0.584503) 4 3 2
(0.00647006 0.579496 0.0560069 0.358027) 5 5 1
(0.124613 0.102275 0.586096 0.187016) 5 5 1
(0.39733 0.172115 0.223592 0.206963) 5 5 1
(0.00705396 0.0111279 0.60017 0.381648) 5 5 1
(0.179991 0.267629 0.4617 0.0906798) 5 5 1
(0.128915 0.00769087 0.50011 0.363284) 5 5 1
(0.328064 0.396825 0.179645 0.0954671) 5 5 2
(0.378541 0.48181 0.0714719 0.0681774) 5 5 2
(0.149947 0.13349 0.00557654 0.710987) 5 5 2
(0.439849 0.102077 0.268314 0.189761) 5 5 2
(0.337648 0.36135 0.0670429 0.233959) 5 5 2
(0.0572529 0.480978 0.0603294 0.40144) 5 5 2
(0.139787 0.000741543 0.31418 0.545291) 5 130 1
(0.127654 0.509675 0.325682 0.0369889) 5 130 1
(0.274383 0.139373 0.240351 0.345892) 5 130 1
(0.381048 0.235365 0.166599 0.216989) 5 130 1
(0.0623483 0.759881 0.0776456 0.100125) 5 130 1
(0.0747692 0.150748 0.373112 0.401371) 5 130 1
(0.443306 0.262226 0.279267 0.0152011) 5 130 2
(0.484217 0.304867 0.0414911 0.169425) 5 130 2
(0.135012 0.582983 0.158669 0.123336) 5 130 2
(0.429234 0.270576 0.144748 0.155442) 5 130 2
(0.241316 0.0989037 0.608877 0.0509039) 5 130 2
(0.0520452 0.308368 0.312192 0.327394) 5 130 2
(0.448206 0.0905236 0.361369 0.0999009) 5 255 1
(0.313208 0.0471567 0.49041 0.149225) 5 255 1
(0.108487 0.0763606 0.340562 0.47459) 5 255 1
(0.0158944 0.157306 0.0530111 0.773789) 5 255 1
(0.278249 0.00334967 0.368251 0.35015) 5 255 1
(0.251364 0.219368 0.0310062 0.498262) 5 255 1
(0.0527728 0.222027 0.0772309 0.647969) 5 255 2
(0.026197 0.0375848 0.378679 0.55754) 5 255 2
(0.167386 0.107086 0.467958 0.257571) 5 255 2
(0.182263 0.0403203 0.289401 0.488016) 5 255 2
(0.300772 0.193614 0.122791 0.382824) 5 255 2
(0.272129 0.66619 0.0206026 0.041078) 5 255 2
(0.4353 0.299531 0.0825994 0.18257) 5 380 1
(0.487651 0.0452876 0.296078 0.170983) 5 380 1
(0.231834 0.41031 0.33457 0.0232866) 5 380 1
(0.290828 0.16783 0.411082 0.13026) 5 380 1
(0.14766 0.115213 0.555759 0.181368) 5 380 1
(0.158009 0.0450618 0.628571 0.168358) 5 380 1
(0.448938 0.383592 0.00338116 0.164089) 5 380 2
(0.364977 0.362332 0.233013 0.0396778) 5 380 2
(0.497609 0.339321 0.102093 0.0609761) 5 380 2
(0.389599 0.2808 0.293435 0.036166) 5 380 2
(0.350837 0.0768365 0.209857 0.36247) 5 380 2
(0.0610033 0.678241 0.0919722 0.168783) 5 380 2
(0.0235417 0.133865 0.532644 0.309949) 5 505 1
(0.247325 0.499467 0.0129263 0.240282) 5 505 1
(0.225621 0.222592 0.111195 0.440592) 5 505 1
(0.52998 0.00312823 0.0637088 0.403183) 5 505 1
(0.402898 0.142662 0.436452 0.0179878) 5 505 1
(0.00372102 0.291938 0.586994 0.117346) 5 505 1
(0.117614 0.112728 0.00726547 0.762392) 5 505 2
(0.416912 0.0856658 0.0226328 0.47479) 5 505 2
(0.067566 0.60403 0.0287925 0.299611) 5 505 2
(0.218691 0.0913195 0.112075 0.577914) 5 505 2
(0.0914389 0.198901 0.420779 0.288881) 5 505 2
(0.248682 0.175238 0.408555 0.167525) 5 505 2
(0.332359 0.326755 0.0559969 0.284889) 5 4 1
(0.368391 0.00115896 0.24586 0.38459) 5 4 1
(0.277087 0.54521 0.0774818 0.100221) 5 4 1
(0.643747 0.0760848 0.0975993 0.182569) 5 4 1
(0.574392 0.0152104 0.321356 0.0890422) 5 4 1
(0.906104 0.0492937 0.0183454 0.0262571) 5 4 1
(0.551135 0.0533057 0.26425 0.13131) 5 4 2
(0.711104 0.0473396 0.078183 0.163373) 5 4 2
(0.179442 0.147382 0.662628 0.0105477) 5 4 2
(0.08182 0.0372026 0.56851 0.312468) 5 4 2
(0.447745 0.118614 0.275842 0.157799) 5 4 2
(0.00583446 0.633923 0.127103 0.23314) 5 4 2
(0.394689 0.131003 0.224859 0.249449) 6 6 1
(0.00269406 0.212543 0.678732 0.106031) 6 6 1
(0.0672737 0.801073 0.122981 0.00867317) 6 6 1
(0.247784 0.247882 0.428905 0.0754287) 6 6 1
(0.6214 0.22842 0.146552 0.00362811) 6 6 1
(0.396969 0.163811 0.0266128 0.412608) 6 6 1
(0.123935 0.12599 0.0947814 0.655293) 6 6 1
(0.268912 0.295822 0.260484 0.174782) 6 6 2
(0.398567 0.0879235 0.459817 0.053692) 6 6 2
(0.229364 0.16698 0.285676 0.31798) 6 6 2
(0.270347 0.0603855 0.359733 0.309534) 6 6 2
(0.426212 0.147277 0.324352 0.102158) 6 6 2
(0.435258 0.0297284 0.056645 0.478369) 6 6 2
(0.255876 0.0740564 0.306853 0.363214) 6 131 1
(0.0698359 0.243894 0.423808 0.262462) 6 131 1
(0.111445 0.47468 0.185118 0.228757) 6 131 1
(0.33224 0.310205 0.0177576 0.339797) 6 131 1
(0.060569 0.456997 0.0404989 0.441935) 6 131 1
(0.535303 0.26794 0.160521 0.0362352) 6 131 1
(0.383264 0.054107 0.0033141 0.559315) 6 131 2
(0.00794954 0.469375 0.362922 0.159754) 6 131 2
(0.568724 0.0909943 0.309875 0.0304065) 6 131 2
(0.0255357 0.0549321 0.569662 0.34987) 6 131 2
(0.386511 0.19775 0.317268 0.0984706) 6 131 2
(0.144047 0.660036 0.0616939 0.134223) 6 131 2
(0.270721 0.464771 0.13073 0.133778) 6 256 1
(0.634383 0.0136286 0.15617 0.195819) 6 256 1
(0.343648 0.0357875 0.485682 0.134883) 6 256 1
(0.662917 0.115002 0.159574 0.062507) 6 256 1
(0.347932 0.431386 0.10116 0.119522) 6 256 1
(0.222055 0.429498 0.330796 0.0176507) 6 256 1
(0.0625393 0.421681 0.092269 0.423511) 6 256 2
(0.472661 0.302269 0.0943868 0.130683) 6 256 2
(0.533856 0.228727 0.173586 0.0638309) 6 256 2
(0.0113649 0.297393 0.539285 0.151957) 6 256 2
(0.25331 0.0643058 0.417042 0.265343) 6 256 2
(0.0591163 0.395057 0.136116 0.409711) 6 256 2
(0.00216862 0.60849 0.294235 0.095106) 6 381 1
(0.19745 0.199297 0.314096 0.289157) 6 381 1
(0.227431 0.0724271 0.551228 0.148914) 6 381 1
(0.317157 0.206226 0.339183 0.137434) 6 381 1
(0.240556 0.0969729 0.306384 0.356088) 6 381 1
(0.489474 0.143598 0.0916505 0.275277) 6 381 1
(0.0646615 0.359651 0.106778 0.46891) 6 381 2
(0.111979 0.126317 0.562875 0.198829) 6 381 2
(0.242526 0.332528 0.286263 0.138682) 6 381 2
(0.206426 0.176156 0.528815 0.0886032) 6 381 2
(0.331908 0.355755 0.031333 0.281004) 6 381 2
(0.0102201 0.00365077 0.232138 0.753991) 6 381 2
(0.0434375 0.279325 0.420827 0.256411) 6 506 1
(0.167472 0.115397 0.711523 0.00560777) 6 506 1
(0.123009 0.196135 0.418399 0.262457) 6 506 1
(0.0643636 0.185705 0.233693 0.516239) 6 506 1
(0.212675 0.122839 0.635329 0.029157) 6 506 1
(0.115765 0.154524 0.219083 0.510627) 6 506 1
(0.330447 0.448975 0.165663 0.0549152) 6 506 2
(0.0709934 0.355044 0.120406 0.453558) 6 506 2
(0.189653 0.0352142 0.553393 0.221739) 6 506 2
(0.202695 0.526034 0.0630872 0.208184) 6 506 2
(0.0126518 0.0253347 0.834039 0.127975) 6 506 2
(0.156512 0.439738 0.17338 0.230369) 6 506 2
(0.181047 0.184132 0.0296307 0.60519) 6 5 1
(0.0220788 0.365106 0.439569 0.173247) 6 5 1
(0.00660789 0.508493 0.465753 0.0191462) 6 5 1
(0.456593 0.0787326 0.169935 0.294739) 6 5 1
(0.2479 0.511837 0.196244 0.0440184) 6 5 1
(0.0818236 0.0701774 0.15961 0.688389) 6 5 1
(0.138381 0.576475 0.0659147 0.21923) 6 5 2
(0.0635281 0.0510793 0.469297 0.416096) 6 5 2
(0.09842 0.101071 0.797832 0.00267706) 6 5 2
(0.147333 0.296023 0.276251 0.280393) 6 5 2
(0.340136 0.0141003 0.344348 0.301416) 6 5 2
(0.50186 0.308059 0.0753414 0.11474) 6 5 2
(0.232262 0.134813 0.462922 0.170003) 7 7 1
(0.144231 0.30877 0.471079 0.07592) 7 7 1
(0.0765878 0.00958401 0.456999 0.456829) 7 7 1
(0.0168719 0.804267 0.0311902 0.147671) 7 7 1
(0.505306 0.308894 0.0335151 0.152285) 7 7 1
(0.000396282 0.21339 0.666686 0.119527) 7 7 1
(0.17613 0.181962 0.504929 0.136979) 7 7 1
(0.380142 0.445443 0.159862 0.0145522) 7 7 2
(0.219835 0.0282767 0.492351 0.259537) 7 7 2
(0.291815 0.244893 0.231042 0.232251) 7 7 2
(0.137098 0.120115 0.0409511 0.701836) 7 7 2
(0.0246416 0.558457 0.249106 0.167795) 7 7 2
(0.294283 0.278615 0.0963013 0.330801) 7 7 2
(0.144799 0.109999 0.741367 0.00383547) 7 7 2
(0.0863538 0.406601 0.481849 0.025196) 7 132 1
(0.343526 0.0414009 0.256359 0.358714) 7 132 1
(0.282477 0.0635358 0.598543 0.0554442) 7 132 1
(0.152239 0.306795 0.223775 0.317191) 7 132 1
(0.539836 0.436055 0.0170781 0.00703098) 7 132 1
(0.0349436 0.271085 0.142844 0.551128) 7 132 1
(0.19532 0.380543 0.353386 0.0707509) 7 132 2
(0.209572 0.583733 0.0407949 0.165901) 7 132 2
(0.317429 0.2627 0.107712 0.312159) 7 132 2
(0.2591 0.287592 0.395691 0.0576169) 7 132 2
(0.0369 0.323137 0.538033 0.10193) 7 132 2
(0.0521884 0.267718 0.0933799 0.586713) 7 132 2
(0.234707 0.426618 0.290987 0.0476879) 7 132 2
(0.933132 0.00618209 0.0501675 0.0105185) 7 257 1
(0.0149236 0.335768 0.206112 0.443196) 7 257 1
(0.176592 0.0457161 0.0734711 0.704221) 7 257 1
(0.302945 0.273132 0.170534 0.253389) 7 257 1
(0.0843183 0.507158 0.252194 0.15633) 7 257 1
(0.228968 0.109267 0.288489 0.373276) 7 257 1
(0.115469 0.00550558 0.390533 0.488493) 7 257 2
(0.118728 0.309245 0.0113862 0.560641) 7 257 2
(0.218238 0.332195 0.421514 0.0280532) 7 257 2
(0.313023 0.131928 0.346596 0.208453) 7 257 2
(0.26255 0.217837 0.182987 0.336627) 7 257 2
(0.102483 0.198497 0.195493 0.503526) 7 257 2
(0.0591638 0.252304 0.340688 0.347845) 7 257 2
(0.193736 0.500278 0.283853 0.0221327) 7 382 1
(0.40043 0.160724 0.191932 0.246914) 7 382 1
(0.469882 0.301646 0.204294 0.024178) 7 382 1
(0.827416 0.0974688 0.0666341 0.00848073) 7 382 1
(0.155029 0.279331 0.333777 0.231863) 7 382 1
(0.324187 0.315871 0.120794 0.239149) 7 382 1
(0.121368 0.578428 0.248407 0.0517976) 7 382 2
(0.226758 0.376422 0.0116341 0.385186) 7 382 2
(0.200614 0.552674 0.108179 0.138533) 7 382 2
(0.357839 0.178264 0.417835 0.0460616) 7 382 2
(0.402667 0.429538 0.0960373 0.0717578) 7 382 2
(0.46815 0.19187 0.0385315 0.301448) 7 382 2
(0.106662 0.00235026 0.709676 0.181312) 7 382 2
(0.536904 0.40401 0.0168675 0.0422191) 7 507 1
(0.304125 0.122408 0.282012 0.291455) 7 507 1
(0.187949 0.32724 0.383026 0.101785) 7 507 1
(0.107492 0.201225 0.675158 0.0161248) 7 507 1
(0.0834303 0.226557 0.148278 0.541735) 7 507 1
(0.3461 0.201041 0.119626 0.333233) 7 507 1
(0.134189 0.738751 0.0593189 0.0677417) 7 507 2
(0.243583 0.144967 0.415825 0.195625) 7 507 2
(0.0712296 0.464365 0.0935376 0.370867) 7 507 2
(0.026468 0.137519 0.601909 0.234104) 7 507 2
(0.187561 0.0216696 0.0615862 0.729184) 7 507 2
(0.025735 0.202395 0.380998 0.390872) 7 507 2
(0.248899 0.0207157 0.604502 0.125883) 7 6 1
(0.207717 0.245221 0.508492 0.0385705) 7 6 1
(0.388387 0.363485 0.222338 0.0257905) 7 6 1
(0.189201 0.166338 0.0331126 0.611348) 7 6 1
(0.0127662 0.257401 0.549629 0.180203) 7 6 1
(0.271872 0.0640319 0.293976 0.37012) 7 6 1
(0.127046 0.357653 0.0104428 0.504859) 7 6 1
(0.247271 0.353916 0.0361947 0.362618) 7 6 2
(0.38151 0.0188828 0.48697 0.112637) 7 6 2
(0.224774 0.273173 0.0141046 0.487949) 7 6 2
(0.459749 0.108281 0.151693 0.280276) 7 6 2
(0.310099 0.461076 0.127967 0.100858) 7 6 2
(0.0681588 0.282022 0.29785 0.351969) 7 6 2
(0.164687 0.311603 0.370052 0.153659) 8 8 1
(0.406154 0.111337 0.272788 0.209721) 8 8 1
(0.0101284 0.113064 0.83194 0.0448674) 8 8 1
(0.122686 0.10345 0.175972 0.597892) 8 8 1
(0.0442249 0.863796 0.00496078 0.0870181) 8 8 1
(0.0803346 0.489014 0.0669054 0.363746) 8 8 1
(0.249111 0.488827 0.133215 0.128847) 8 8 1
(0.0204883 0.117742 0.0523977 0.809372) 8 8 2
(0.300126 0.0192713 0.29629 0.384312) 8 8 2
(0.153781 0.695172 0.1453 0.00574612) 8 8 2
(0.368965 0.0981516 0.190378 0.342506) 8 8 2
(0.31826 0.503369 0.162803 0.0155692) 8 8 2
(0.0143301 0.0106164 0.0230726 0.951981) 8 8 2
(0.0550746 0.315735 0.372965 0.256226) 8 133 1
(0.0323443 0.749188 0.139959 0.0785092) 8 133 1
(0.117161 0.0325462 0.364125 0.486168) 8 133 1
(0.184565 0.297393 0.15965 0.358391) 8 133 1
(0.369993 0.133617 0.282617 0.213772) 8 133 1
(0.318987 0.267554 0.269599 0.14386) 8 133 1
(0.63929 0.0951395 0.0825761 0.182995) 8 133 2
(0.178256 0.0944303 0.161586 0.565728) 8 133 2
(0.141139 0.532853 0.146653 0.179355) 8 133 2
(0.135821 0.126744 0.13441 0.603025) 8 133 2
(0.497233 0.0187961 0.0768838 0.407087) 8 133 2
(0.335018 0.0489952 0.527722 0.0882652) 8 133 2
(0.02951 0.0044093 0.955843 0.0102376) 8 258 1
(0.120626 0.630759 0.0975226 0.151092) 8 258 1
(0.165207 0.162854 0.243163 0.428776) 8 258 1
(0.172463 0.238316 0.187104 0.402117) 8 258 1
(0.479308 0.116223 0.0130795 0.39139) 8 258 1
(0.125626 0.456361 0.344405 0.0736074) 8 258 1
(0.219557 0.518548 0.256613 0.00528115) 8 258 2
(0.320687 0.297835 0.153651 0.227827) 8 258 2
(0.288816 0.120868 0.249994 0.340322) 8 258 2
(0.151164 0.420744 0.254071 0.174021) 8 258 2
(0.054966 0.391008 0.139855 0.414171) 8 258 2
(0.0340581 0.0223858 0.868267 0.0752887) 8 258 2
(0.160967 0.283218 0.539923 0.0158919) 8 383 1
(0.246097 0.362885 0.31363 0.0773875) 8 383 1
(0.23773 0.634879 0.0962205 0.0311706) 8 383 1
(0.0330279 0.240839 0.241341 0.484792) 8 383 1