/*--------------------------------*- C++ -*----------------------------------*\
  =========                 |
  \\      /  F ield         | OpenFOAM: The Open Source CFD Toolbox
   \\    /   O peration     | Website:  https://openfoam.org
    \\  /    A nd           | Version:  7
     \\/     M anipulation  |
\*---------------------------------------------------------------------------*/
FoamFile
{
    version     2.0;
    format      ascii;
    class       Cloud<passiveParticle>;
    location    "0/lagrangian/dsmc";
    object      positions;
}
// * * * * * * * * * * * * * * * * * * * * * * * * * * * * * * * * * * * * * //

35834
(
(0.0654416 0.811016 0.0444869 0.0790559) 0 0 1
(0.177436 0.459016 0.298068 0.0654803) 0 0 1
(0.113618 0.197274 0.0683016 0.620807) 0 0 1
(0.153507 0.0357087 0.741379 0.0694056) 0 0 1
(0.309833 0.230832 0.170664 0.288672) 0 0 1
(0.178552 0.421301 0.0103235 0.389823) 0 0 1
(0.531564 0.131916 0.212591 0.123929) 0 0 1
(0.236377 0.417255 0.0789717 0.267396) 0 0 1
(0.555534 0.0615065 0.21839 0.164569) 0 0 1
(0.53899 0.00596765 0.330521 0.124521) 0 0 1
(0.0268814 0.539143 0.394538 0.0394375) 0 0 1
(0.016888 0.246191 0.554101 0.18282) 0 0 1
(0.105775 0.46042 0.237093 0.196712) 0 0 2
(0.151893 0.262015 0.0960666 0.490026) 0 0 2
(0.876399 0.00114208 0.0652448 0.0572138) 0 0 2
(0.206322 0.331945 0.340983 0.12075) 0 0 2
(0.386688 0.0100624 0.476398 0.126851) 0 0 2
(0.383942 0.384199 0.0495194 0.18234) 0 0 2
(0.313194 0.102184 0.0848742 0.499748) 0 0 2
(0.644095 0.0328319 0.287718 0.035355) 0 0 2
(0.0476232 0.102501 0.575005 0.274871) 0 0 2
(0.0189942 0.0681168 0.565282 0.347606) 0 0 2
(0.0758053 0.129499 0.331139 0.463557) 0 0 2
(0.22077 0.146308 0.26689 0.366032) 0 0 2
(0.222564 0.310602 0.407306 0.0595284) 0 250 1
(0.0895235 0.297508 0.15325 0.459718) 0 250 1
(0.0665683 0.36022 0.14782 0.425392) 0 250 1
(0.567533 0.361061 0.070702 0.00070487) 0 250 1
(0.109125 0.342553 0.0134165 0.534905) 0 250 1
(0.164821 0.00354676 0.804053 0.0275786) 0 250 1
(0.678449 0.247345 0.0524448 0.0217612) 0 250 1
(0.12757 0.767967 0.0287643 0.0756984) 0 250 1
(0.144752 0.0486171 0.50634 0.300291) 0 250 1
(0.154478 0.411789 0.402584 0.0311494) 0 250 1
(0.319503 0.353397 0.0987065 0.228393) 0 250 1
(0.0697704 0.471598 0.362685 0.0959463) 0 250 1
(0.257239 0.217041 0.48327 0.042451) 0 250 2
(0.61933 0.0923124 0.154365 0.133992) 0 250 2
(0.198299 0.343904 0.159572 0.298225) 0 250 2
(0.513267 0.27596 0.0812721 0.129501) 0 250 2
(0.755924 0.0776998 0.0144278 0.151948) 0 250 2
(0.487391 0.0326856 0.258426 0.221498) 0 250 2
(0.46476 0.422087 0.0597993 0.0533533) 0 250 2
(0.244241 0.276915 0.0797046 0.39914) 0 250 2
(0.192838 0.50889 0.105968 0.192304) 0 250 2
(0.536829 0.243235 0.140079 0.0798565) 0 250 2
(0.264208 0.407562 0.0308636 0.297367) 0 250 2
(0.166869 0.266799 0.150183 0.41615) 0 250 2
(0.273504 0.40675 0.049822 0.269924) 0 500 1
(0.394206 0.44007 0.0506712 0.115053) 0 500 1
(0.124664 0.4 0.376048 0.0992876) 0 500 1
(0.398587 0.382844 0.202344 0.0162257) 0 500 1
(0.144844 0.0077166 0.433606 0.413834) 0 500 1
(0.118958 0.51577 0.0459239 0.319348) 0 500 1
(0.191663 0.275906 0.0136625 0.518768) 0 500 1
(0.548696 0.000371862 0.0111269 0.439805) 0 500 1
(0.294421 0.0159714 0.15803 0.531578) 0 500 1
(0.0441073 0.399764 0.0639426 0.492186) 0 500 1
(0.558901 0.153758 0.107787 0.179554) 0 500 1
(0.0575696 0.319133 0.0675431 0.555754) 0 500 1
(0.18982 0.247945 0.233475 0.32876) 0 500 2
(0.266648 0.0479966 0.225424 0.459931) 0 500 2
(0.0936422 0.37371 0.357135 0.175513) 0 500 2
(0.432811 0.299602 0.177742 0.0898456) 0 500 2
(0.0898063 0.0657018 0.479386 0.365106) 0 500 2
(0.0969897 0.344954 0.0204799 0.537576) 0 500 2
(0.276745 0.0201565 0.129738 0.573361) 0 500 2
(0.610625 0.0920929 0.0292396 0.268042) 0 500 2
(0.0538592 0.195468 0.0369204 0.713752) 0 500 2
(0.887388 0.039362 0.0684735 0.00477677) 0 500 2
(0.169043 0.440855 0.20527 0.184832) 0 500 2
(0.528925 0.237018 0.192814 0.0412436) 0 500 2
(0.57232 0.0266475 0.114897 0.286135) 0 750 1
(0.0633442 0.585343 0.0966307 0.254682) 0 750 1
(0.222527 0.294057 0.4632 0.0202167) 0 750 1
(0.353125 0.319383 0.155216 0.172276) 0 750 1
(0.265243 0.306538 0.0630012 0.365217) 0 750 1
(0.210359 0.228211 0.0829503 0.478479) 0 750 1
(0.338476 0.0653298 0.156245 0.439949) 0 750 1
(0.412805 0.110396 0.0129135 0.463886) 0 750 1
(0.397931 0.246217 0.139422 0.21643) 0 750 1
(0.587354 0.139142 0.128779 0.144725) 0 750 1
(0.185548 0.541817 0.00586171 0.266774) 0 750 1
(0.0160051 0.366439 0.158304 0.459252) 0 750 1
(0.134156 0.324515 0.400221 0.141108) 0 750 2
(0.0864291 0.314364 0.028593 0.570614) 0 750 2
(0.406852 0.083119 0.324135 0.185894) 0 750 2
(0.474164 0.199061 0.271129 0.0556459) 0 750 2
(0.00570753 0.0447006 0.249145 0.700447) 0 750 2
(0.300099 0.34513 0.00787382 0.346897) 0 750 2
(0.0957776 0.252208 0.0678178 0.584196) 0 750 2
(0.66608 0.207772 0.0463252 0.0798225) 0 750 2
(0.0217213 0.586541 0.233175 0.158563) 0 750 2
(0.104875 0.241225 0.413758 0.240141) 0 750 2
(0.0299212 0.190448 0.154678 0.624952) 0 750 2
(0.228728 0.124534 0.207265 0.439473) 0 750 2
(0.0382396 0.10797 0.717299 0.136492) 0 1000 1
(0.557324 0.238251 0.136734 0.0676911) 0 1000 1
(0.246449 0.233348 0.275374 0.244829) 0 1000 1
(0.0927343 0.281206 0.603582 0.0224774) 0 1000 1
(0.267468 0.140956 0.132065 0.459511) 0 1000 1
(0.00532227 0.155841 0.63154 0.207296) 0 1000 1
(0.122043 0.331636 0.224508 0.321813) 0 1000 1
(0.0824484 0.591043 0.267666 0.0588423) 0 1000 1
(0.0328406 0.0851765 0.39093 0.491053) 0 1000 1
(0.216604 0.184217 0.438549 0.16063) 0 1000 1
(0.121123 0.44671 0.290482 0.141685) 0 1000 1
(0.511589 0.0315556 0.280759 0.176096) 0 1000 1
(0.67187 0.119065 0.0190088 0.190056) 0 1000 2
(0.16763 0.0349303 0.302621 0.494819) 0 1000 2
(0.472629 0.244677 0.136363 0.146331) 0 1000 2
(0.326009 0.634231 0.0081208 0.0316393) 0 1000 2
(0.169774 0.65201 0.027692 0.150524) 0 1000 2
(0.315662 0.0493126 0.537085 0.0979405) 0 1000 2
(0.241049 0.407647 0.0822823 0.269022) 0 1000 2
(0.0117687 0.0469324 0.637295 0.304004) 0 1000 2
(0.197924 0.00322052 0.274971 0.523884) 0 1000 2
(0.126395 0.0840695 0.638173 0.151363) 0 1000 2
(0.188461 0.234703 0.17382 0.403016) 0 1000 2
(0.046359 0.752359 0.0105803 0.190702) 0 1000 2
(0.0259713 0.000113394 0.229101 0.744814) 0 1250 2
(0.250504 0.170986 0.495269 0.0832423) 0 1250 2
(0.718437 0.0926864 0.116286 0.0725905) 0 1250 2
(0.84585 0.0373065 0.0153919 0.101452) 0 1250 2
(0.0469762 0.00791303 0.943463 0.00164769) 0 1250 2
(0.131561 0.172133 0.632733 0.0635738) 0 1250 2
(0.33839 0.356488 0.216754 0.0883679) 0 1250 2
(0.257797 0.21117 0.292479 0.238554) 0 1250 2
(0.239739 0.494029 0.143362 0.12287) 0 1250 2
(0.110831 0.323316 0.336032 0.229821) 0 1250 2
(0.213147 0.290166 0.257219 0.239468) 0 1250 2
(0.262124 0.296609 0.212661 0.228605) 0 1250 2
(0.0361712 0.502111 0.0306292 0.431088) 0 1250 1
(0.311276 0.115401 0.332353 0.240971) 0 1250 1
(0.469042 0.3865 0.0102855 0.134173) 0 1250 1
(0.515405 0.04437 0.369192 0.0710324) 0 1250 1
(0.144342 0.00636307 0.0138534 0.835441) 0 1250 1
(0.224211 0.112161 0.17421 0.489418) 0 1250 1
(0.224496 0.238449 0.0240619 0.512993) 0 1250 1
(0.180022 0.129265 0.646858 0.0438556) 0 1250 1
(0.172111 0.608797 0.139223 0.079869) 0 1250 1
(0.149978 0.684633 0.0815307 0.083859) 0 1250 1
(0.57508 0.265054 0.158963 0.000903839) 0 1250 1
(0.252953 0.211946 0.0854706 0.44963) 0 1250 1
(0.303765 0.415536 0.213688 0.0670105) 1 1 1
(0.00574298 0.444125 0.258754 0.291378) 1 1 1
(0.190434 0.383786 0.318918 0.106862) 1 1 1
(0.605805 0.032984 0.0636309 0.29758) 1 1 1
(0.395077 0.177439 0.0837423 0.343742) 1 1 1
(0.149987 0.118925 0.513273 0.217815) 1 1 1
(0.536229 0.0168524 0.110046 0.336873) 1 1 1
(0.341659 0.252794 0.396096 0.00945081) 1 1 1
(0.132762 0.115128 0.191837 0.560272) 1 1 1
(0.108233 0.496795 0.187354 0.207618) 1 1 1
(0.192246 0.391355 0.317446 0.0989532) 1 1 1
(0.305815 0.304488 0.135919 0.253777) 1 1 1
(0.47283 0.271096 0.252297 0.00377698) 1 1 2
(0.563651 0.0204197 0.26274 0.153189) 1 1 2
(0.428798 0.150675 0.18484 0.235687) 1 1 2
(0.0334347 0.416698 0.173189 0.376679) 1 1 2
(0.226887 0.154699 0.314647 0.303767) 1 1 2
(0.0256239 0.443249 0.440909 0.0902179) 1 1 2
(0.155359 0.0368796 0.474282 0.33348) 1 1 2
(0.135866 0.0614588 0.0846565 0.718018) 1 1 2
(0.0278439 0.0431123 0.536694 0.39235) 1 1 2
(0.303932 0.242923 0.380112 0.0730327) 1 1 2
(0.153663 0.0409502 0.632116 0.173271) 1 1 2
(0.104839 0.217918 0.164084 0.513159) 1 1 2
(0.0479012 0.00142638 0.816128 0.134545) 1 251 1
(0.220385 0.0743939 0.271079 0.434142) 1 251 1
(0.383383 0.144254 0.129631 0.342732) 1 251 1
(0.0189076 0.860629 0.0528222 0.0676416) 1 251 1
(0.106081 0.187645 0.0799627 0.626312) 1 251 1
(0.0125086 0.143824 0.506588 0.33708) 1 251 1
(0.184652 0.16396 0.0203548 0.631033) 1 251 1
(0.297922 0.249397 0.441725 0.0109558) 1 251 1
(0.388748 0.39891 0.181805 0.030536) 1 251 1
(0.671194 0.0141654 0.141538 0.173103) 1 251 1
(0.231648 0.0498792 0.150131 0.568342) 1 251 1
(0.0254183 0.174692 0.0629555 0.736934) 1 251 1
(0.59298 0.0958969 0.184988 0.126135) 1 251 2
(0.215622 0.241636 0.26481 0.277932) 1 251 2
(0.0913189 0.512559 0.172238 0.223885) 1 251 2
(0.305164 0.0544055 0.541803 0.0986271) 1 251 2
(0.189426 0.0610414 0.112069 0.637463) 1 251 2
(0.00477814 0.436856 0.235905 0.322461) 1 251 2
(0.218907 0.329052 0.225307 0.226734) 1 251 2
(0.519323 0.224685 0.16142 0.0945723) 1 251 2
(0.121686 0.146816 0.281027 0.450471) 1 251 2
(0.571288 0.0224263 0.329277 0.0770084) 1 251 2
(0.188994 0.328894 0.154973 0.32714) 1 251 2
(0.442218 0.188357 0.107019 0.262406) 1 251 2
(0.487661 0.00146675 0.434624 0.0762485) 1 501 1
(0.0310284 0.180434 0.468398 0.32014) 1 501 1
(0.237168 0.0634099 0.283765 0.415657) 1 501 1
(0.0519818 0.225051 0.554284 0.168683) 1 501 1
(0.427994 0.186704 0.377109 0.00819297) 1 501 1
(0.0187397 0.596882 0.0806415 0.303736) 1 501 1
(0.110234 0.194534 0.360888 0.334344) 1 501 1
(0.499822 0.0106765 0.0599932 0.429508) 1 501 1
(0.81456 0.0162584 0.0203529 0.148829) 1 501 1
(0.187065 0.00440493 0.00984045 0.798689) 1 501 1
(0.376765 0.299198 0.320428 0.00360921) 1 501 1
(0.241093 0.140305 0.548862 0.0697402) 1 501 1
(0.00885078 0.29883 0.206266 0.486053) 1 501 2
(0.329529 0.183194 0.108469 0.378808) 1 501 2
(0.283222 0.132886 0.111582 0.47231) 1 501 2
(0.230584 0.188203 0.57907 0.00214346) 1 501 2
(0.0954722 0.393622 0.113075 0.39783) 1 501 2
(0.250742 0.0297975 0.512471 0.20699) 1 501 2
(0.0478381 0.347437 0.209456 0.395268) 1 501 2
(0.093936 0.443985 0.371877 0.0902021) 1 501 2
(0.321905 0.292073 0.246682 0.13934) 1 501 2
(0.164199 0.0862992 0.616677 0.132824) 1 501 2
(0.400771 0.126723 0.443165 0.0293422) 1 501 2
(0.657345 0.0362204 0.109913 0.196522) 1 501 2
(0.0325012 0.343294 0.43171 0.192494) 1 751 1
(0.107011 0.482196 0.240135 0.170657) 1 751 1
(0.425219 0.218114 0.159785 0.196882) 1 751 1
(0.0459947 0.508732 0.38907 0.0562038) 1 751 1
(0.150333 0.532623 0.0725661 0.244478) 1 751 1
(0.0472235 0.447858 0.0727558 0.432163) 1 751 1
(0.0308562 0.059306 0.902043 0.00779474) 1 751 1
(0.210072 0.230556 0.556585 0.00278734) 1 751 1
(0.105905 0.39955 0.192366 0.302179) 1 751 1
(0.787641 0.00362055 0.0812686 0.12747) 1 751 1
(0.0799304 0.379251 0.454561 0.0862578) 1 751 1
(0.140409 0.153868 0.142323 0.5634) 1 751 1
(0.443564 0.492732 0.0427419 0.020962) 1 751 2
(0.7113 0.118398 0.117623 0.0526787) 1 751 2
(0.180699 0.0808114 0.353965 0.384525) 1 751 2
(0.665252 0.247436 0.00707259 0.0802394) 1 751 2
(0.378728 0.153316 0.27282 0.195137) 1 751 2
(0.379534 0.0863579 0.45894 0.0751683) 1 751 2
(0.537116 0.0694101 0.389924 0.00354918) 1 751 2
(0.569966 0.0300625 0.185004 0.214968) 1 751 2
(0.235225 0.319758 0.143317 0.301701) 1 751 2
(0.0336786 0.715071 0.216962 0.0342875) 1 751 2
(0.0593789 0.125807 0.136775 0.67804) 1 751 2
(0.154298 0.671994 0.160751 0.0129573) 1 751 2
(0.450431 0.162608 0.110537 0.276424) 1 1001 1
(0.0418684 0.277431 0.294143 0.386557) 1 1001 1
(0.11827 0.0513901 0.545324 0.285016) 1 1001 1
(0.422125 0.0900905 0.263794 0.22399) 1 1001 1
(0.142938 0.128956 0.452113 0.275993) 1 1001 1
(0.294799 0.270123 0.111036 0.324042) 1 1001 1
(0.1219 0.376449 0.276357 0.225294) 1 1001 1
(0.124989 0.0803103 0.352102 0.442599) 1 1001 1
(0.266651 0.556391 0.0922677 0.0846903) 1 1001 1
(0.881838 0.00370806 0.0927889 0.0216647) 1 1001 1
(0.551686 0.163221 0.0657232 0.219369) 1 1001 1
(0.109297 0.0707837 0.779335 0.0405845) 1 1001 2
(0.0836574 0.09475 0.705117 0.116475) 1 1001 2
(0.641239 0.3155 0.0342217 0.00903908) 1 1001 2
(0.0686043 0.210195 0.249524 0.471677) 1 1001 2
(0.0563613 0.354185 0.0873656 0.502088) 1 1001 2
(0.495241 0.325751 0.17578 0.00322781) 1 1001 2
(0.520323 0.195237 0.206241 0.0781998) 1 1001 2
(0.366795 0.0410687 0.367477 0.224659) 1 1001 2
(0.347777 0.338775 0.103904 0.209544) 1 1001 2
(0.405988 0.178545 0.0444712 0.370996) 1 1001 2
(0.0982204 0.478766 0.145969 0.277044) 1 1001 2
(0.548912 0.102417 0.1611 0.187571) 1 1001 2
(0.124196 0.187405 0.409031 0.279368) 1 0 1
(0.231402 0.112103 0.58052 0.0759751) 1 0 1
(0.308913 0.455853 0.21917 0.0160639) 1 0 1
(0.144282 0.181793 0.56178 0.112145) 1 0 1
(0.210111 0.426374 0.306217 0.0572973) 1 0 1
(0.0573507 0.391209 0.418029 0.133411) 1 0 1
(0.276064 0.607456 0.0908385 0.0256412) 1 0 1
(0.320716 0.0470849 0.289139 0.34306) 1 0 1
(0.0163804 0.554034 0.0146228 0.414963) 1 0 1
(0.192252 0.0058986 0.060596 0.741254) 1 0 1
(0.244991 0.454604 0.202022 0.098383) 1 0 1
(0.183351 0.376707 0.416656 0.0232857) 1 0 1
(0.107975 0.426579 0.183737 0.28171) 1 0 2
(0.429217 0.207058 0.100335 0.26339) 1 0 2
(0.290851 0.321871 0.00436704 0.382911) 1 0 2
(0.357191 0.547043 0.0813981 0.0143672) 1 0 2
(0.0646662 0.0185992 0.170093 0.746641) 1 0 2
(0.026911 0.323939 0.0971179 0.552032) 1 0 2
(0.181245 0.505311 0.198705 0.114739) 1 0 2
(0.15848 0.0809073 0.347665 0.412948) 1 0 2
(0.186936 0.294942 0.00443139 0.51369) 1 0 2
(0.379333 0.342309 0.176586 0.101773) 1 0 2
(0.000720073 0.0203348 0.353722 0.625223) 1 0 2
(0.139943 0.325919 0.144618 0.38952) 1 0 2
(0.313198 0.543156 0.102338 0.0413077) 2 2 1
(0.30985 0.125718 0.185134 0.379298) 2 2 1
(0.603953 0.145313 0.157737 0.0929965) 2 2 1
(0.163414 0.0438148 0.00597679 0.786795) 2 2 1
(0.272386 0.0655638 0.484646 0.177404) 2 2 1
(0.217593 0.529285 0.222935 0.0301879) 2 2 1
(0.114378 0.171493 0.0927333 0.621396) 2 2 1
(0.306168 0.123862 0.238623 0.331347) 2 2 1
(0.0714122 0.273361 0.102998 0.552229) 2 2 1
(0.0401454 0.029224 0.167514 0.763117) 2 2 1
(0.242314 0.164443 0.541265 0.0519775) 2 2 1
(0.192526 0.154865 0.440913 0.211695) 2 2 1
(0.633358 0.12901 0.0197545 0.217877) 2 2 2
(0.0666391 0.0422311 0.688848 0.202282) 2 2 2
(0.0370684 0.735717 0.105218 0.121996) 2 2 2
(0.474966 0.00731878 0.041013 0.476702) 2 2 2
(0.107423 0.174677 0.362015 0.355885) 2 2 2
(0.00732491 0.856002 0.00636637 0.130307) 2 2 2
(0.252569 0.0271785 0.210867 0.509385) 2 2 2
(0.0076709 0.396204 0.087766 0.50836) 2 2 2
(0.121552 0.404125 0.204401 0.269921) 2 2 2
(0.508509 0.00325233 0.0221592 0.466079) 2 2 2
(0.130059 0.485393 0.0708028 0.313745) 2 2 2
(0.246383 0.687249 0.00310046 0.0632673) 2 2 2
(0.503848 0.167441 0.157926 0.170785) 2 252 1
(0.177472 0.391552 0.152172 0.278804) 2 252 1
(0.0204851 0.513277 0.0511682 0.41507) 2 252 1
(0.0193679 0.18846 0.745101 0.0470717) 2 252 1
(0.549302 0.0496916 0.113452 0.287555) 2 252 1
(0.515613 0.0235614 0.43125 0.0295756) 2 252 1
(0.21231 0.483476 0.00323677 0.300977) 2 252 1
(0.644987 0.243285 0.0889671 0.0227618) 2 252 1
(0.25418 0.532837 0.0978912 0.115092) 2 252 1
(0.039449 0.253006 0.471964 0.235581) 2 252 1
(0.393213 0.125094 0.0611291 0.420564) 2 252 1
(0.43581 0.0193589 0.0421109 0.50272) 2 252 1
(0.15971 0.0158717 0.00320859 0.82121) 2 252 2
(0.186298 0.273009 0.444284 0.0964098) 2 252 2
(0.101733 0.319108 0.257563 0.321595) 2 252 2
(0.104757 0.258029 0.067373 0.569841) 2 252 2
(0.18088 0.683789 0.0736269 0.0617044) 2 252 2
(0.383362 0.0275924 0.123822 0.465224) 2 252 2
(0.122739 0.127171 0.104778 0.645313) 2 252 2
(0.313304 0.0698323 0.557796 0.0590667) 2 252 2
(0.210048 0.513334 0.207803 0.0688155) 2 252 2
(0.141587 0.398119 0.427788 0.0325065) 2 252 2
(0.20292 0.549406 0.0940917 0.153582) 2 252 2
(0.557944 0.157737 0.151091 0.133227) 2 252 2
(0.0109936 0.16648 0.798578 0.0239485) 2 502 1
(0.370718 0.37713 0.199418 0.0527332) 2 502 1
(0.0347102 0.233411 0.650304 0.0815746) 2 502 1
(0.400776 0.204559 0.24094 0.153724) 2 502 1
(0.140731 0.0708529 0.649501 0.138916) 2 502 1
(0.0981563 0.503237 0.028903 0.369703) 2 502 1
(0.296131 0.131203 0.138648 0.434018) 2 502 1
(0.206137 0.284879 0.456793 0.0521912) 2 502 1
(0.120968 0.0937308 0.0412974 0.744004) 2 502 1
(0.298244 0.32095 0.265628 0.115178) 2 502 1
(0.195316 0.233752 0.356084 0.214848) 2 502 1
(0.24421 0.26431 0.202027 0.289452) 2 502 1
(0.224323 0.469945 0.0263733 0.279358) 2 502 2
(0.449431 0.0721701 0.279446 0.198953) 2 502 2
(0.192379 0.417483 0.0840218 0.306116) 2 502 2
(0.315195 0.210622 0.143651 0.330532) 2 502 2
(0.578931 0.244937 0.0108818 0.165249) 2 502 2
(0.702387 0.205572 0.0351996 0.0568418) 2 502 2
(0.0590514 0.224009 0.123194 0.593745) 2 502 2
(0.119569 0.262009 0.0968411 0.521581) 2 502 2
(0.281702 0.0734522 0.46748 0.177366) 2 502 2
(0.132954 0.33957 0.464388 0.063089) 2 502 2
(0.326732 0.133334 0.158135 0.381799) 2 502 2
(0.00110578 0.902397 0.0318031 0.0646938) 2 502 2
(0.0537924 0.287351 0.371045 0.287812) 2 752 1
(0.665491 0.2904 0.0425344 0.00157455) 2 752 1
(0.445593 0.0205315 0.296497 0.237378) 2 752 1
(0.380225 0.0052634 0.491908 0.122604) 2 752 1
(0.165117 0.200446 0.399065 0.235372) 2 752 1
(0.0616661 0.181852 0.522266 0.234216) 2 752 1
(0.709008 0.087842 0.0297005 0.17345) 2 752 1
(0.0992387 0.0830456 0.0218307 0.795885) 2 752 1
(0.182168 0.623876 0.00749046 0.186466) 2 752 1
(0.045107 0.00278166 0.479699 0.472413) 2 752 1
(0.266388 0.228453 0.124926 0.380233) 2 752 1
(0.270303 0.331475 0.163945 0.234278) 2 752 1
(0.355619 0.150091 0.225839 0.26845) 2 752 2
(0.497525 0.368799 0.0575101 0.0761659) 2 752 2
(0.208362 0.0336884 0.118403 0.639547) 2 752 2
(0.031276 0.44863 0.500805 0.0192894) 2 752 2
(0.216697 0.172736 0.0850578 0.525509) 2 752 2
(0.135851 0.164554 0.0697075 0.629887) 2 752 2
(0.15017 0.770432 0.0642283 0.0151693) 2 752 2
(0.0436031 0.0117037 0.07597 0.868723) 2 752 2
(0.023437 0.160192 0.523022 0.293349) 2 752 2
(0.784276 0.0206879 0.157206 0.0378303) 2 752 2
(0.356903 0.494128 0.0265121 0.122457) 2 752 2
(0.0345326 0.456563 0.0672286 0.441675) 2 752 2
(0.109201 0.221508 0.615577 0.0537141) 2 1002 1
(0.479138 0.140346 0.0125755 0.367941) 2 1002 1
(0.280505 0.333355 0.315472 0.0706687) 2 1002 1
(0.0687591 0.428535 0.407387 0.0953189) 2 1002 1
(0.662796 0.00690294 0.189236 0.141064) 2 1002 1
(0.19787 0.591945 0.110361 0.0998236) 2 1002 1
(0.484383 0.0366921 0.214757 0.264167) 2 1002 1
(0.302322 0.453193 0.131166 0.113319) 2 1002 1
(0.14896 0.473257 0.31673 0.0610536) 2 1002 1
(0.410769 0.137922 0.251347 0.199962) 2 1002 1
(0.357524 0.582232 0.0184835 0.0417605) 2 1002 1
(0.278416 0.119592 0.0936047 0.508387) 2 1002 1
(0.341068 0.0411628 0.369775 0.247995) 2 1002 2
(0.608298 0.158542 0.145509 0.0876512) 2 1002 2
(0.150029 0.215195 0.462814 0.171962) 2 1002 2
(0.00977273 0.75393 0.17479 0.0615068) 2 1002 2
(0.173989 0.308772 0.115517 0.401722) 2 1002 2
(0.393982 0.07038 0.494126 0.0415126) 2 1002 2
(0.100252 0.438925 0.00218163 0.458642) 2 1002 2
(0.0116159 0.160806 0.69425 0.133329) 2 1002 2
(0.182559 0.0276841 0.0443305 0.745427) 2 1002 2
(0.231543 0.0198071 0.267002 0.481648) 2 1002 2
(0.625706 0.174607 0.117964 0.0817227) 2 1002 2
(0.462309 0.181513 0.0400549 0.316123) 2 1002 2
(0.187462 0.165259 0.364442 0.282837) 2 1 1
(0.145915 0.217869 0.188272 0.447944) 2 1 1
(0.0386847 0.0902626 0.187401 0.683652) 2 1 1
(0.0815128 0.10321 0.639144 0.176133) 2 1 1
(0.432384 0.247667 0.0456253 0.274323) 2 1 1
(0.17035 0.25655 0.536419 0.036681) 2 1 1
(0.0965814 0.271302 0.509257 0.12286) 2 1 1
(0.0649952 0.210708 0.115916 0.608381) 2 1 1
(0.16202 0.0240909 0.34612 0.467769) 2 1 1
(0.687434 0.17836 0.0303164 0.10389) 2 1 1
(0.270001 0.494429 0.206028 0.0295421) 2 1 1
(0.223344 0.552534 0.163914 0.0602087) 2 1 1
(0.141343 0.0231223 0.127875 0.707659) 2 1 2
(0.0270074 0.235731 0.113029 0.624232) 2 1 2
(0.190024 0.135622 0.0681071 0.606246) 2 1 2
(0.329832 0.219594 0.191104 0.259471) 2 1 2
(0.381796 0.0516147 0.524007 0.0425818) 2 1 2
(0.207434 0.00122084 0.566985 0.22436) 2 1 2
(0.141899 0.0295073 0.521229 0.307365) 2 1 2
(0.0860329 0.17756 0.450037 0.286371) 2 1 2
(0.214735 0.563225 0.21915 0.00289023) 2 1 2
(0.401501 0.069417 0.0880923 0.440989) 2 1 2
(0.511447 0.0233755 0.410581 0.0545969) 2 1 2
(0.185147 0.132658 0.453371 0.228825) 2 1 2
(0.0387809 0.268173 0.312145 0.380901) 3 3 1
(0.162311 0.264805 0.485604 0.0872802) 3 3 1
(0.411224 0.194069 0.267979 0.126729) 3 3 1
(0.00182006 0.66049 0.285617 0.0520726) 3 3 1
(0.0185171 0.0229215 0.844418 0.114143) 3 3 1
(0.137843 0.0272565 0.324999 0.509901) 3 3 1
(0.553855 0.184914 0.0355832 0.225648) 3 3 1
(0.316467 0.444626 0.131287 0.107621) 3 3 1
(0.244039 0.416102 0.110861 0.228998) 3 3 1
(0.582284 0.162484 0.0709106 0.184322) 3 3 1
(0.359652 0.296746 0.0608974 0.282705) 3 3 1
(0.000635791 0.153993 0.746819 0.0985523) 3 3 1
(0.031054 0.20133 0.63767 0.129947) 3 3 2
(0.243964 0.153828 0.188838 0.41337) 3 3 2
(0.305615 0.10884 0.0488536 0.536691) 3 3 2
(0.110579 0.39567 0.279854 0.213897) 3 3 2
(0.0079612 0.108357 0.823529 0.0601535) 3 3 2
(0.139852 0.0728324 0.245221 0.542094) 3 3 2
(0.0222245 0.272551 0.33955 0.365675) 3 3 2
(0.370926 0.33098 0.0354185 0.262675) 3 3 2
(0.0409241 0.25813 0.233158 0.467787) 3 3 2
(0.113671 0.772727 0.0872568 0.0263457) 3 3 2
(0.125404 0.111045 0.145565 0.617986) 3 3 2
(0.448977 0.0763717 0.230546 0.244105) 3 3 2
(0.240918 0.475084 0.122198 0.1618) 3 253 1
(0.10552 0.229956 0.0462298 0.618294) 3 253 1
(0.244265 0.386271 0.060738 0.308726) 3 253 1
(0.264723 0.269893 0.35444 0.110944) 3 253 1
(0.240803 0.130542 0.0174347 0.61122) 3 253 1
(0.0438057 0.0516713 0.352685 0.551838) 3 253 1
(0.0427829 0.169764 0.568762 0.218691) 3 253 1
(0.00686972 0.321112 0.00449918 0.667519) 3 253 1
(0.395612 0.241309 0.213923 0.149156) 3 253 1
(0.0431796 0.36011 0.504832 0.0918785) 3 253 1
(0.450197 0.0624601 0.0467755 0.440567) 3 253 1
(0.162274 0.124703 0.143876 0.569148) 3 253 1
(0.349368 0.0229233 0.589484 0.0382254) 3 253 2
(0.338832 0.510545 0.0764605 0.0741624) 3 253 2
(0.0204382 0.321683 0.32563 0.332249) 3 253 2
(0.105065 0.38009 0.355023 0.159822) 3 253 2
(0.221156 0.214115 0.453877 0.110852) 3 253 2
(0.236914 0.38213 0.0916189 0.289337) 3 253 2
(0.146289 0.130741 0.0758511 0.647119) 3 253 2
(0.346411 0.409577 0.0413437 0.202668) 3 253 2
(0.178092 0.172171 0.50554 0.144197) 3 253 2
(0.31474 0.119054 0.0320264 0.534179) 3 253 2
(0.313294 0.561408 0.0346697 0.0906281) 3 253 2
(0.301881 0.147851 0.521007 0.0292602) 3 253 2
(0.0212319 0.286858 0.481868 0.210042) 3 503 1
(0.290803 0.0783996 0.435921 0.194876) 3 503 1
(0.000111628 0.0517695 0.313059 0.63506) 3 503 1
(0.0628309 0.58402 0.250182 0.102967) 3 503 1
(0.158097 0.226299 0.297011 0.318593) 3 503 1
(0.638898 0.238945 0.0107201 0.111436) 3 503 1
(0.133623 0.304591 0.370327 0.191459) 3 503 1
(0.15881 0.00861498 0.0460216 0.786553) 3 503 1
(0.161637 0.251775 0.465935 0.120652) 3 503 1
(0.327678 0.0411804 0.545309 0.085832) 3 503 1
(0.574552 0.101284 0.0735758 0.250589) 3 503 1
(0.356901 0.224889 0.198742 0.219468) 3 503 1
(0.0741269 0.597024 0.0382846 0.290565) 3 503 2
(0.0236034 0.183836 0.220503 0.572058) 3 503 2
(0.663407 0.0140422 0.239906 0.0826444) 3 503 2
(0.65465 0.0492537 0.0950294 0.201067) 3 503 2
(0.195921 0.393537 0.264883 0.14566) 3 503 2
(0.273195 0.121406 0.233945 0.371455) 3 503 2
(0.791434 0.0804145 0.10778 0.0203709) 3 503 2
(0.542637 0.157482 0.132553 0.167329) 3 503 2
(0.153459 0.0140373 0.528139 0.304365) 3 503 2
(0.101128 0.54615 0.317684 0.0350383) 3 503 2
(0.191625 0.40994 0.338844 0.0595913) 3 503 2
(0.340198 0.207874 0.281379 0.170549) 3 503 2
(0.264695 0.038125 0.146866 0.550314) 3 753 1
(0.00376675 0.680409 0.300286 0.0155386) 3 753 1
(0.031727 0.0647448 0.100833 0.802695) 3 753 1
(0.0928935 0.122461 0.42377 0.360876) 3 753 1
(0.282652 0.119153 0.519861 0.0783342) 3 753 1
(0.180858 0.467997 0.108261 0.242884) 3 753 1
(0.355166 0.0956021 0.119995 0.429238) 3 753 1
(0.39307 0.0978236 0.0995034 0.409603) 3 753 1
(0.125704 0.151487 0.327617 0.395193) 3 753 1
(0.10574 0.330255 0.300348 0.263657) 3 753 1
(0.071819 0.536161 0.386285 0.00573548) 3 753 1
(0.0669822 0.140698 0.436289 0.356031) 3 753 1
(0.115375 0.11521 0.307904 0.461511) 3 753 2
(0.285807 0.403678 0.191401 0.119114) 3 753 2
(0.750206 0.0248081 0.134716 0.0902697) 3 753 2
(0.1332 0.0631369 0.0199676 0.783696) 3 753 2
(0.329066 0.376461 0.211809 0.0826641) 3 753 2
(0.0824404 0.41519 0.106635 0.395735) 3 753 2
(0.109281 0.153476 0.196009 0.541234) 3 753 2
(0.403525 0.377596 0.0046275 0.214252) 3 753 2
(0.213045 0.13383 0.257239 0.395886) 3 753 2
(0.150544 0.39916 0.276549 0.173748) 3 753 2
(0.276213 0.0080518 0.205183 0.510552) 3 753 2
(0.141909 0.00787797 0.550323 0.29989) 3 753 2
(0.733607 0.190169 0.0457521 0.0304717) 3 1003 1
(0.770525 0.0189332 0.189451 0.0210909) 3 1003 1
(0.0208076 0.3109 0.102778 0.565514) 3 1003 1
(0.372592 0.050191 0.375576 0.201641) 3 1003 1
(0.360062 0.14755 0.0499649 0.442423) 3 1003 1
(0.0143049 0.23864 0.210159 0.536896) 3 1003 1
(0.204417 0.531874 0.0123902 0.251319) 3 1003 1
(0.314659 0.234569 0.342397 0.108375) 3 1003 1
(0.224723 0.289756 0.179914 0.305606) 3 1003 1
(0.321613 0.15913 0.277098 0.242159) 3 1003 1
(0.661027 0.175162 0.0757838 0.0880271) 3 1003 1
(0.0339053 0.0459134 0.825169 0.0950127) 3 1003 1
(0.135222 0.246823 0.0411268 0.576829) 3 1003 2
(0.750973 0.0865977 0.0910174 0.0714117) 3 1003 2
(0.253165 0.294486 0.335755 0.116594) 3 1003 2
(0.166918 0.0739018 0.258497 0.500683) 3 1003 2
(0.0297956 0.0270843 0.186457 0.756663) 3 1003 2
(0.273622 0.255829 0.455084 0.0154656) 3 1003 2
(0.33963 0.188887 0.220444 0.251039) 3 1003 2
(0.0040108 0.415645 0.136645 0.4437) 3 1003 2
(0.183305 0.41252 0.0448737 0.359301) 3 1003 2
(0.214714 0.506273 0.105885 0.173128) 3 1003 2
(0.611313 0.154669 0.157706 0.0763115) 3 1003 2
(0.642805 0.181181 0.0399695 0.136044) 3 2 1
(0.0916764 0.60581 0.25021 0.0523039) 3 2 1
(0.0533348 0.649731 0.0510773 0.245857) 3 2 1
(0.206868 0.457625 0.0955061 0.24) 3 2 1
(0.524575 0.1329 0.268864 0.0736604) 3 2 1
(0.452327 0.100019 0.33699 0.110664) 3 2 1
(0.00644957 0.0564552 0.498242 0.438853) 3 2 1
(0.447337 0.0498773 0.177154 0.325631) 3 2 1
(0.351486 0.0243077 0.0412386 0.582968) 3 2 1
(0.413498 0.410098 0.159844 0.0165598) 3 2 1
(0.0959444 0.686641 0.109 0.108414) 3 2 1
(0.112915 0.125957 0.34636 0.414769) 3 2 1
(0.271443 0.203341 0.237681 0.287535) 3 2 2
(0.079174 0.0534599 0.0599622 0.807404) 3 2 2
(0.379843 0.202564 0.202415 0.215179) 3 2 2
(0.350329 0.275266 0.342789 0.0316163) 3 2 2
(0.540663 0.17224 0.0861172 0.20098) 3 2 2
(0.502109 0.206182 0.0850786 0.206631) 3 2 2
(0.608612 0.084503 0.193138 0.113747) 3 2 2
(0.204925 0.271318 0.264454 0.259303) 3 2 2
(0.0901621 0.392436 0.113525 0.403877) 3 2 2
(0.0908309 0.177644 0.713479 0.0180464) 3 2 2
(0.448267 0.450735 0.0294507 0.0715471) 3 2 2
(0.252398 0.0340344 0.564345 0.149222) 3 2 2
(0.0609269 0.133625 0.150772 0.654677) 4 4 1
(0.0172319 0.642695 0.284686 0.0553873) 4 4 1
(0.687069 0.22491 0.0481308 0.0398908) 4 4 1
(0.590403 0.220019 0.117071 0.0725069) 4 4 1
(0.0853459 0.606784 0.298373 0.00949795) 4 4 1
(0.445729 0.0511669 0.22136 0.281744) 4 4 1
(0.352821 0.0615184 0.282419 0.303242) 4 4 1
(0.146325 0.126633 0.476476 0.250567) 4 4 1
(0.0425923 0.272167 0.0933595 0.591882) 4 4 1
(0.0654129 0.161557 0.761158 0.0118717) 4 4 1
(0.0818471 0.155893 0.620725 0.141535) 4 4 1
(0.1671 0.212363 0.428895 0.191642) 4 4 1
(0.329254 0.369728 0.180625 0.120393) 4 4 2
(0.489769 0.118524 0.216819 0.174888) 4 4 2
(0.226838 0.0258791 0.403185 0.344098) 4 4 2
(0.394849 0.444572 0.0690052 0.0915736) 4 4 2
(0.0612626 0.268422 0.353332 0.316983) 4 4 2
(0.0952337 0.0175218 0.0376834 0.849561) 4 4 2
(0.171736 0.118 0.0849877 0.625276) 4 4 2
(0.20092 0.0716784 0.282774 0.444628) 4 4 2
(0.0653429 0.0110264 0.504501 0.41913) 4 4 2
(0.159163 0.151605 0.477032 0.2122) 4 4 2
(0.258355 0.408897 0.174171 0.158577) 4 4 2
(0.591249 0.0718276 0.247119 0.0898044) 4 4 2
(0.379671 0.0888251 0.155266 0.376237) 4 254 1
(0.0815947 0.548765 0.0674733 0.302167) 4 254 1
(0.132817 0.0627563 0.547323 0.257104) 4 254 1
(0.744615 0.0286576 0.13908 0.0876477) 4 254 1
(0.355111 0.163109 0.163819 0.317961) 4 254 1
(0.210991 0.541039 0.0164946 0.231475) 4 254 1
(0.091413 0.237967 0.664017 0.00660289) 4 254 1
(0.0309365 0.143535 0.533661 0.291868) 4 254 1
(0.416434 0.451611 0.065325 0.06663) 4 254 1
(0.246038 0.0302003 0.524013 0.199748) 4 254 1
(0.173383 0.236678 0.00304468 0.586895) 4 254 1
(0.181546 0.166795 0.417204 0.234454) 4 254 1
(0.0170109 0.471162 0.147336 0.364491) 4 254 2
(0.328799 0.0120301 0.059432 0.599738) 4 254 2
(0.252528 0.386527 0.11541 0.245535) 4 254 2
(0.415819 0.391308 0.00160198 0.191271) 4 254 2
(0.238272 0.164192 0.559925 0.0376104) 4 254 2
(0.119979 0.342985 0.108778 0.428258) 4 254 2
(0.227416 0.0639585 0.458399 0.250227) 4 254 2
(0.220258 0.193661 0.212954 0.373128) 4 254 2
(0.265928 0.0296796 0.311251 0.393142) 4 254 2
(0.259363 0.362944 0.0945003 0.283193) 4 254 2
(0.239207 0.194725 0.139866 0.426202) 4 254 2
(0.170186 0.392627 0.356833 0.0803551) 4 254 2
(0.155437 0.0752135 0.513232 0.256117) 4 504 1
(0.346326 0.38821 0.115278 0.150187) 4 504 1
(0.219816 0.263801 0.2788 0.237583) 4 504 1
(0.00679443 0.322957 0.177174 0.493074) 4 504 1
(0.427539 0.207049 0.1129 0.252512) 4 504 1
(0.097356 0.179866 0.384849 0.337929) 4 504 1
(0.0286059 0.0659041 0.665115 0.240375) 4 504 1
(0.551508 0.340153 0.108101 0.000237081) 4 504 1
(0.00498195 0.0916607 0.272637 0.630721) 4 504 1
(0.281395 0.145287 0.105721 0.467597) 4 504 1
(0.569194 0.0806506 0.172483 0.177673) 4 504 1