/*--------------------------------*- C++ -*----------------------------------*\
  =========                 |
  \\      /  F ield         | OpenFOAM: The Open Source CFD Toolbox
   \\    /   O peration     | Website:  https://openfoam.org
    \\  /    A nd           | Version:  7
     \\/     M anipulation  |
\*---------------------------------------------------------------------------*/
FoamFile
{
    version     2.0;
    format      ascii;
    class       vectorField;
    location    "0/lagrangian/dsmc";
    object      U;
}
// * * * * * * * * * * * * * * * * * * * * * * * * * * * * * * * * * * * * * //


35834
(
(-94.1349 251.142 43.4452)
(314.598 -189.654 -77.9497)
(-35.0521 -100.891 -30.3244)
(312.724 -70.4185 195.22)
(-131.027 -216.553 101.445)
(177.93 -131.234 227.244)
(379.233 505.102 131.886)
(342.581 -267.832 -163.869)
(-19.3681 56.018 213.541)
(-54.6094 -88.5295 323.932)
(-108.13 -110.902 -280.012)
(-119.26 -245.3 198.771)
(-417.774 171.12 42.3734)
(78.9456 190.933 -258.157)
(-216.085 56.0368 551.724)
(-165.587 287.258 -414.928)
(43.0212 -371.793 170.067)
(-119.688 103.875 19.7651)
(-118.003 224.43 194.569)
(518.836 -349.479 -336.673)
(76.2313 79.8724 10.6484)
(-57.9696 -161.809 -309.849)
(-161.276 -85.5409 163.276)
(114.174 -139.89 202.699)
(166.513 -100.69 -207.178)
(28.2106 -116.98 150.285)
(-2.62726 371.071 156.412)
(-67.4403 82.0497 -222.921)
(-66.9514 301.15 -138.597)
(-199.501 257.584 199.41)
(30.5465 238.761 252.712)
(76.8007 48.6273 -145.093)
(-164.52 131.046 -63.6249)
(70.662 225.14 -22.5386)
(48.1166 26.7281 281.117)
(44.1082 16.9195 29.3854)
(-97.323 -48.0763 -11.3193)
(12.2562 2.08555 488.426)
(-163.78 -178.432 123.658)
(-47.2617 -246.893 -74.1697)
(-183.304 -41.4325 -59.2297)
(24.4865 434.866 -3.15306)
(142.704 -168.946 -531.916)
(-99.9696 -34.5489 19.5315)
(-107.185 138.148 -220.007)
(426.739 -463.829 514.326)
(-320.874 288.146 -120.382)
(3.2696 139.856 -674.728)
(119.5 -1.02884 69.267)
(-41.3144 112.302 -166.04)
(88.9635 324.023 -329.617)
(-49.5077 336.276 243.734)
(49.6172 84.6124 113.491)
(256.739 179.101 8.86441)
(168.913 -265.585 -252.346)
(268.271 -205.661 248.882)
(551.357 10.0488 -567.136)
(-120.5 -355.303 -53.6463)
(-135.822 -71.0709 -124.329)
(-104.596 -326.795 258.47)
(27.7388 276.882 323.038)
(45.7263 130.751 -140.612)
(189.073 218.618 -63.0879)
(-6.55565 215.223 -214.255)
(-140.08 22.7331 -120.541)
(-393.367 116.353 -71.3524)
(-200.046 222.202 57.9186)
(128.595 100.654 -43.1613)
(-269.458 138.382 -56.7873)
(-242.62 -4.09569 -44.7598)
(251.95 -51.4108 342.242)
(123.033 -35.0193 -139.363)
(-155.61 -327.274 -207.846)
(-26.9114 -62.8632 112.637)
(-328.957 -219.384 135.551)
(107.836 10.1354 52.6574)
(-394.883 231.081 54.6913)
(-285.992 129.948 400.497)
(557.09 99.2813 78.5224)
(63.3978 80.3792 -100.338)
(-298.282 -468.561 87.5709)
(-120.571 -173.292 128.969)
(3.53715 -84.6203 -21.0037)
(169.007 -202.341 -400.211)
(157.726 301.035 -21.7082)
(-442.955 158.725 -535.415)
(15.7191 -3.84614 97.2801)
(191.375 -153.978 -144.921)
(-272.444 -56.7773 -333.486)
(-447.448 -145.744 46.9437)
(-84.891 294.522 66.0101)
(-15.3607 24.8158 23.7815)
(76.6121 61.6496 -317.814)
(207.79 -143.223 -106.724)
(-50.7419 -17.5696 132.071)
(138.328 -5.47633 384.269)
(-173.665 -43.9317 -125.159)
(-159.393 -120.17 183.847)
(-44.0794 411.286 -90.1873)
(-89.346 -27.1008 56.2751)
(370.79 -146.362 -250.911)
(132.73 93.1543 -95.4754)
(-264.857 33.4716 -363.041)
(-110.417 237.184 -63.0965)
(-526.346 -265.043 -93.5967)
(-3.93023 98.6372 310.044)
(-337.424 53.0899 -31.6471)
(385.72 -373.629 -332.375)
(30.812 23.2184 353.94)
(-519.433 21.5976 -31.1246)
(-149.521 266.981 2.08962)
(-152.068 -302.872 -107.707)
(-228.3 -349.685 81.7368)
(258.796 -181.898 -188.309)
(11.3001 -500.339 99.5042)
(109.29 -281.916 47.4171)
(-199.409 299.814 236.398)
(-421.689 427.183 199.549)
(101.058 65.6006 390.005)
(-279.035 68.6177 -94.6855)
(-230.736 -169.159 50.3152)
(229.326 -557.251 -204.534)
(44.6906 276.424 -92.9976)
(118.294 -65.5411 241.341)
(74.2531 -8.663 337.016)
(-11.337 272.858 51.1373)
(-155.317 -98.6065 -450.136)
(-332.855 -150.138 138.579)
(256.217 124.859 -56.9564)
(20.3888 -15.0426 -425.594)
(5.52924 520.459 119.502)
(-81.1152 133.819 -35.4834)
(238.321 55.767 340.162)
(-408.117 -68.36 -453.598)
(122.561 223.937 -207.799)
(-61.3973 -148.248 111.085)
(-297.467 32.2617 86.0511)
(-221.208 -270.303 -119.978)
(-19.2691 -30.7699 -387.711)
(105.022 -262.958 -348.042)
(14.2076 -379.479 -14.6186)
(46.545 39.7238 -33.7885)
(-8.17438 54.6282 56.4539)
(88.9373 69.0484 222.017)
(85.958 141.322 124.97)
(-168.436 70.6779 260.494)
(-358.727 -473.198 -67.6155)
(-371.115 -136.906 163.238)
(290.539 -165.944 -50.7074)
(73.2454 -119.886 -348.751)
(319.092 74.7565 231.978)
(49.5482 -443.011 15.1305)
(156.312 109.927 -131.538)
(222.499 9.33574 186.763)
(-112.159 268.493 107.051)
(177.931 129.305 -292.967)
(-24.7317 74.8991 -186.829)
(165.073 -57.0757 262.921)
(84.0263 -201.304 -207.874)
(-170.154 -127.861 -117.782)
(-301.269 -256.689 -355.589)
(-290.274 -171.674 114.784)
(88.9109 -270.481 -27.636)
(87.1151 279.374 -111.351)
(-223.95 -264.991 -79.1368)
(335.257 3.43259 87.0211)
(-104.065 210.758 -48.9506)
(-267.387 -223.756 1.06493)
(-127.683 5.71486 -54.3846)
(150.979 152.278 -290.414)
(-271.091 29.3173 173.848)
(-27.4302 -107.22 171.544)
(-319.782 195.609 245.518)
(223.911 -397.922 -147.308)
(379.18 428.238 -285.57)
(-157.496 117.38 42.3735)
(292.812 338.85 -304.994)
(99.203 29.2751 191.979)
(61.0475 -57.0472 139.242)
(-131.356 -57.1693 -58.6114)
(-141.784 73.5503 -32.7254)
(22.6232 -127.148 5.30094)
(-167.391 368.115 -93.8742)
(-230.824 52.9707 -140.466)
(-552.863 178.33 237.765)
(-114.42 -63.9913 411.54)
(-188.482 87.3221 -108.052)
(40.6393 144.551 79.4582)
(155.968 -70.0007 -136.778)
(270.381 -64.8992 26.1274)
(-282.573 -192.278 50.599)
(176.407 306.925 110.289)
(-57.1246 95.2442 148.354)
(-289.227 246.326 183.749)
(90.969 -100.011 61.8543)
(-28.5696 38.4063 -181.01)
(282.037 -90.5744 18.9593)
(-40.0104 200.662 -483.026)
(-24.4652 -49.9536 -180.965)
(168.753 -115.258 379.086)
(-245.911 352.972 317.344)
(-103.425 -49.6879 -155.323)
(551.762 78.1312 -295.818)
(-486.834 -396.134 -245.499)
(-59.1677 -458.263 276.281)
(350.342 242.585 -115.388)
(-138.699 -78.231 -193.689)
(24.1264 -56.102 -230.998)
(-219.377 -54.6549 78.3707)
(-572.799 144.533 -295.496)
(259.069 -187.077 -413.689)
(310.028 74.7391 95.6786)
(3.40913 -114.953 -257.249)
(-316.695 30.7983 19.1717)
(298.597 312.752 153.221)
(-4.07569 -134.382 -295.066)
(-8.52339 -98.6206 57.063)
(-242.368 103.278 75.3975)
(-282.805 30.6544 9.8383)
(-236.929 -224.403 363.055)
(77.4267 29.2089 45.5347)
(-156.332 98.1026 171.061)
(-307.221 -290.625 419.315)
(-67.9616 -43.6659 -294.355)
(-190.132 148.309 -581.597)
(100.846 69.3722 127.446)
(-502.615 -131.397 357.687)
(-139.349 -167.905 314.339)
(13.5144 -558.746 316.091)
(122.154 160.547 -148.025)
(-88.8014 8.6859 521.861)
(-47.5771 -197.597 -14.4108)
(-194.058 -348.775 178.809)
(296.437 -114.207 -105.494)
(119.921 -156.614 -237.512)
(213.151 -226.454 -57.7786)
(-53.6527 -377.362 54.4928)
(-170.361 -24.2575 320.41)
(-140.336 -346.896 -356.802)
(119.083 87.9318 -164.774)
(6.07324 -108.47 -159.37)
(169.056 345.669 395.152)
(153.565 -221.01 -195.192)
(106.751 -63.3788 90.3862)
(265.627 -138.517 -249.991)
(35.6807 -145.214 -240.94)
(102.838 -285.006 173.923)
(306.229 379.482 -150.419)
(97.8515 -50.2069 60.4476)
(-44.044 373.152 -111.425)
(-221.329 -199.945 17.5402)
(16.9653 -50.5587 -181.04)
(91.3802 7.83813 -140.064)
(-165.51 158.689 98.96)
(214.448 -78.3256 138.982)
(231.364 143.424 -145.975)
(163.027 -195.016 -170.851)
(-344.394 239.011 11.227)
(43.7338 -78.3605 -34.6317)
(-135.971 -33.3658 -87.2817)
(-181.417 -208.092 -319.8)
(155.814 -156.76 -91.3594)
(88.4318 -183.275 1.74121)
(-8.85498 94.4831 379.63)
(-111.005 -96.1799 -13.3797)
(104.855 115.341 97.8391)
(119.414 -84.0605 18.8915)
(121.82 -53.6766 186.189)
(244.452 145.596 206.167)
(-17.7202 -84.5441 52.9028)
(8.80867 605.576 66.2386)
(-10.281 -54.0718 127.428)
(136.296 -229.414 -22.0838)
(-26.5151 107.89 -409.713)
(-41.7164 -54.0393 20.2364)
(-10.4528 -97.6088 -153.508)
(118.62 -85.1552 287.469)
(312.285 -119.138 288.307)
(225.762 137.26 -672.452)
(-71.7918 -92.702 -154.566)
(-483.574 -118.875 5.31741)
(-116.689 -495.897 -351.822)
(72.1793 -442.278 224.022)
(188.795 -85.9793 -120.568)
(-477.937 -119.369 -37.127)
(-18.9791 -215.646 23.4317)
(84.55 61.0093 -53.1591)
(54.5334 177.285 -236.422)
(-189.984 -62.5597 28.7219)
(321.308 -127.815 -79.9208)
(212.339 326.483 -218.135)
(124.357 354.094 -93.1913)
(-120.365 -15.8111 -138.071)
(-245.679 -429.871 181.423)
(-346.109 -383.947 105.349)
(-25.0608 26.5253 55.6122)
(-168.611 205.209 -10.3157)
(389.231 -262.506 282.465)
(-250.072 300.022 -108.518)
(238.796 33.9342 39.1573)
(212.35 -188.071 123.876)
(-34.5812 -95.2 13.3522)
(306.365 133.668 -195.288)
(-32.6864 -129.83 229.785)
(15.3934 511.136 198.763)
(-168.394 163.517 -343.104)
(43.5392 -215.606 -472.287)
(-319.272 56.3603 234.422)
(79.1735 202.799 -0.339607)
(279.247 36.8749 -56.8003)
(73.1735 -97.5886 -579.144)
(-197.588 -291.343 -196.505)
(106.792 -70.6647 3.77823)
(108.677 -14.6498 -4.31576)
(49.084 60.8276 -4.13471)
(11.9414 -280.97 290.138)
(12.7091 197.509 168.085)
(107.491 -217.83 229.946)
(-226.594 -203.72 74.3608)
(-73.4856 -309.481 94.7858)
(165.85 -47.8588 135.565)
(-242.055 143.015 190.846)
(-117.735 349.175 21.4027)
(-76.4596 -263.676 -32.0747)
(-62.8636 -48.7766 280.743)
(416.671 -303.928 129.995)
(26.0463 54.6066 -262.831)
(-29.9153 130.242 -66.3244)
(-101.045 -234.234 101.014)
(-100.398 288.114 -193.271)
(238.259 205.675 -128.58)
(-156.062 -374.922 318.772)
(304.696 -88.5304 -336.345)
(-219.047 -83.8496 76.5051)
(-396.799 -43.9517 -45.8929)
(-48.9146 309.788 -272.707)
(-119.261 392.618 350.924)
(236.381 25.0247 13.6983)
(435.505 15.6498 -76.7268)
(-146.824 182.557 -24.6892)
(-241.169 148.446 -156.477)
(-236.157 -101.069 67.9605)
(-357.217 5.12423 -179.562)
(38.9579 204.262 -174.041)
(28.4523 -263.713 96.2005)
(107.504 51.4001 -243.822)
(106.176 149.97 -137.872)
(-247.04 80.9031 72.6458)
(3.08454 71.2013 310.808)
(52.0483 -235.681 132.394)
(-77.373 106.656 -264.502)
(-302.608 67.3219 -121.981)
(68.9324 121.587 -195.052)
(-75.5408 138.618 300.958)
(-105.951 -77.2486 -63.363)
(-40.1977 10.7665 360.542)
(183.181 -219.949 177.767)
(144.5 -593.267 87.4646)
(154.474 -117.348 20.9905)
(157.693 16.5311 -290.697)
(-428.146 129.492 -327.934)
(142.763 141.154 -92.0554)
(-295.753 155.557 439.995)
(129.482 -242.626 -238.612)
(-266.183 -167.666 -78.1576)
(-152.006 203.782 43.1379)
(226.445 19.9113 427.81)
(138.136 429.136 -289.598)
(125.486 220.832 -171.533)
(-49.9942 -11.8976 -113.504)
(-15.251 219.674 14.7782)
(-144.41 549.042 178.947)
(-26.555 -100.407 -128.453)
(-216.531 98.9169 -193.278)
(57.712 196.233 -189.816)
(229.908 -294.32 -136.612)
(140.705 -78.1483 127.713)
(-250.19 22.4977 -257.168)
(18.3147 -104.45 -454.809)
(339.465 -70.6969 131.126)
(-104.218 -225.53 443.946)
(306.927 398.098 -64.2478)
(200.887 -64.7112 63.6009)
(-101.019 -275.327 364.693)
(-16.2248 -322.994 -14.9593)
(-337.148 -268.836 -108.472)
(-218.977 -267.138 -70.4304)
(277.288 -82.2377 -3.4131)
(-95.9011 129.764 -329.878)
(-1.54512 87.405 -334.543)
(-237.403 89.4088 -589.421)
(291.018 152.765 -515.555)
(-161.435 -39.1417 60.3629)
(202.511 254.455 -421.36)
(34.239 13.1527 -64.5443)
(26.8721 435.282 -214.501)
(52.4613 -121.264 13.7605)
(-23.2556 -44.5244 -96.3884)
(-180.315 -6.993 13.397)
(-7.64844 -167.067 -27.4352)
(-81.3226 -157.657 81.4752)
(-16.7689 -119.41 555.388)
(272.552 -82.2026 62.1789)
(-16.2678 213.648 136.596)
(-255.271 -46.0396 -384.487)
(-86.8037 -143.392 -298.572)
(-56.4256 158.265 -144.369)
(85.9192 -186.948 123.734)
(129.073 25.8556 -327.946)
(-88.9104 -47.18 -259.974)
(-262.982 52.472 -264.859)
(-112.233 92.1638 341.738)
(-0.235712 -408.298 39.2365)
(-93.446 69.9099 -222.572)
(-166.199 -325.02 -90.629)
(266.881 224.815 93.1381)
(148.289 -279.309 -41.8012)
(234.789 -222.522 169.19)
(-210.414 -342.601 24.5749)
(124.116 24.1902 -185.746)
(152.107 -103.512 -78.268)
(-176.965 -9.06388 -80.0717)
(23.9349 266.544 361.028)
(-58.6096 -147.633 -158.159)
(186.633 -100.623 216.387)
(-66.9969 -261.471 82.0523)
(225.718 -8.71986 -257.589)
(3.87554 -568.255 271.565)
(-51.3684 -97.5953 -66.9761)
(-261.502 -33.8359 232.913)
(23.1094 -353.677 -35.8492)
(177.701 -24.1251 15.5988)
(-344.693 -174.391 -423.975)
(-346.836 171.167 -109.297)
(8.03304 -56.9178 27.285)
(119.745 -91.7435 579.036)
(153.138 297.338 40.7145)
(256.409 -331.525 -368.241)
(71.0914 -110.561 126.099)
(43.7917 -174.826 -143.437)
(283.797 -31.8498 59.1601)
(123 25.3703 -15.5179)
(-189.994 -325.292 50.8349)
(112.225 65.9251 -272.914)
(-175.333 165.47 204.954)
(-422.704 -5.48433 322.039)
(-46.3315 -15.1618 74.3976)
(-490.361 354.894 59.5795)
(7.93106 -272.616 -55.0149)
(-406.331 -169.171 330.828)
(391.236 261.629 263.021)
(192.63 -54.9611 136.9)
(-298.182 116.263 35.6424)
(-177.985 -103.33 -87.3943)
(190.621 -102.905 -155.132)
(-170.662 -193.453 167.937)
(253.783 -55.7592 72.0922)
(-70.7459 -18.3262 133.575)
(-131.414 -177.143 268.418)
(-185.308 -53.9108 -68.6806)
(24.5301 -235.326 -61.5396)
(197.445 54.2005 -73.7511)
(-143.816 -33.7 81.3339)
(-214.607 378.304 -20.8495)
(73.1429 81.357 65.5526)
(-97.8685 17.064 242.404)
(-175.026 710.241 -67.1242)
(193.89 78.5034 199.58)
(147.563 29.8918 429.772)
(-38.7628 148.144 101.575)
(591.972 -16.7368 205.924)
(-19.3133 148.103 112.146)
(-210.182 278.448 101.598)
(84.4337 134.355 -326.548)
(-80.1975 -22.0593 -115.166)
(-486.694 364.962 37.4162)
(399.414 277.988 -318.966)
(-10.9654 117.985 199.547)
(274.388 53.8666 -61.6442)
(-111.285 129.003 207.93)
(-188.158 -75.3193 -234.327)
(-26.827 -176.615 76.4405)
(127.473 -311.201 239.841)
(-86.2397 110.359 84.0912)
(-208.713 293.92 19.9047)
(-147.074 232.279 189.174)
(-60.2992 -48.5258 437.348)
(-405.612 272.852 -91.4631)
(123.454 138.303 468.615)
(113.931 148.257 247.927)
(168.822 296.444 335.604)
(-140.232 177.758 124.63)
(343.454 226.611 15.9948)
(-216.974 256.939 -301.854)
(188.402 -320.354 89.7371)
(189.148 214.559 -226.647)
(286.109 347.075 16.48)
(164.536 -50.6047 -325.365)
(198.988 454.978 -120.499)
(127.287 362.937 -375.118)
(-685.177 181.557 -239.835)
(285.655 -16.8674 -179.882)
(73.9688 94.7414 -348.111)
(-96.6787 -37.4537 175.509)
(19.5311 -524.144 -44.3469)
(-43.905 -265.929 -224.313)
(-95.0978 -7.45153 -32.0564)
(10.7708 317.325 -104.129)
(-57.122 -124.012 -239.727)
(198.848 132.42 230.189)
(296.005 322.843 381.385)
(-68.9746 175.115 -84.2932)
(-293.135 -432.76 -320.188)
(96.4998 -15.0916 -157.225)
(-163.767 -234.964 199.568)
(54.8509 -502.661 -331.289)
(88.1836 407.708 190.223)
(-372.794 -150.109 99.0884)
(131.49 -178.384 -79.7132)
(-13.5831 433.922 -210.109)
(-135.062 325.785 281.9)
(-16.7185 304.12 128.781)
(-290.095 184.373 28.11)
(-24.3659 65.1537 39.3712)
(306.642 -126.815 71.4475)
(-465.619 -474.186 60.9114)
(-590.437 -365.822 414.542)
(-110.075 22.0138 61.3099)
(70.5177 152.456 -73.7317)
(318.455 -342.283 -12.892)
(114.326 203.056 -267.42)
(-183.693 -424.855 -122.798)
(-333.418 -22.044 306.004)
(-58.3133 -304.788 -109.676)
(-236.851 -22.0532 43.4484)
(19.5125 -1.47917 23.0856)
(279.318 -12.8689 90.7529)
(-142.297 85.3999 123.271)
(-167.893 -176.649 114.59)
(-191.473 -433.941 182.933)
(-28.9207 -53.9721 -105.565)
(121.63 110.616 -170.37)
(-287.765 7.35401 -58.6566)
(-475.977 -46.7548 -202.559)
(231.89 262.499 -54.3814)
(115.614 -72.7974 9.77917)
(-153.269 168.527 -398.04)
(183.078 -173.351 -35.2056)
(252.653 97.3017 68.4334)
(-157.953 -218.357 -264.584)
(189.092 345.966 -199.134)
(-161.897 58.5445 38.6509)
(382.636 -190.863 254.534)
(16.4856 -31.6934 -255.258)
(552.468 607.846 -90.8483)
(53.8555 152.199 -146.256)
(136.124 -9.71228 -265.659)
(181.063 -225.347 251.87)
(-200.42 -14.788 150.277)
(199.955 129.453 160.65)
(222.88 -253.523 -135.897)
(397.758 155.862 -232.337)
(256.521 288.021 110.085)
(-344.266 578.592 -50.0337)
(-293.378 -94.8159 66.2876)
(151.306 277.617 200.718)
(241.475 9.73828 -24.1623)
(401.621 -393.431 174.497)
(-112.077 -344.69 139.356)
(-55.1356 -94.6472 -346.564)
(141.164 -303.799 -289.255)
(3.576 187.289 131.141)
(151.306 -384.767 -248.124)
(-345.873 -240.082 277.664)
(-358.808 64.3939 -193.125)
(304.369 -82.6722 329.734)
(465.017 -130.158 -322.639)
(2.64712 -324.336 218.876)
(61.2959 6.63789 61.7803)
(56.3282 -71.0805 -64.978)
(564.995 357.612 124.442)
(-104.552 29.1317 349.34)
(-430.387 230.119 251.169)
(-342.454 272.748 -21.2892)
(516.337 271.289 -98.4512)
(-62.6878 -1.35711 29.185)
(-47.7106 0.937201 416.731)
(380.651 -85.2578 213.132)
(-81.2113 3.81765 -139.872)
(93.6208 59.9749 335.188)
(-60.8448 174.072 14.5963)
(-59.7509 6.33048 99.4247)
(189.147 6.96703 112.561)
(191.438 -51.4419 79.5169)
(76.4788 -241.897 -79.3673)
(-61.1328 -136.326 -75.2916)
(-107.235 180.794 193.458)
(56.4153 339.504 -150.824)
(46.1797 -27.563 -82.0623)
(163.543 -11.1493 447.593)
(191.15 -63.9242 150.361)
(-57.903 -230.82 -41.3147)
(-135.202 -87.9287 -6.51889)
(74.1143 -23.1917 -222.262)
(-570.808 -119.014 27.676)
(34.3941 133.934 80.4302)
(-115.124 -228.979 -79.2676)
(-227.523 110.958 -115.171)
(-136.683 -291.029 29.5943)
(-2.96556 -334.317 -72.9412)
(48.8831 -11.6677 -452.782)
(442.282 -523.373 3.98061)
(-99.8272 -613.259 -193.276)
(-181.809 -255.857 -142.241)
(-232.139 -73.6318 -167.509)
(-379.499 91.2413 139.972)
(-192.424 -16.4226 -6.76978)
(195.574 -399.181 -125.481)
(-327.995 68.8482 143.855)
(37.7788 96.4675 360.749)
(259.099 121.019 280.248)
(-28.981 -155.005 133.068)
(-200.739 -144.697 -493.73)
(191.122 41.0235 -348.851)
(-52.5381 -392.737 167.861)
(293.404 -345.572 -2.51417)
(-54.6783 150.205 1.44074)
(121.163 -27.8746 73.7476)
(-72.7716 2.40999 96.0262)
(-77.5781 -47.5054 251.037)
(-125.457 -407.646 -148.795)
(-49.3266 118.849 162.476)
(-631.31 106.016 -52.9666)
(274.516 728.711 -16.5389)
(35.2767 14.1651 333.114)
(-142.015 -152.826 -163.572)
(136.152 -140.541 -198.151)
(110.882 -122.389 198.151)
(-219.908 136.651 223.156)
(59.0983 207.471 29.6144)
(369.839 244.912 -142.249)
(426.997 -173.821 -310.532)
(-96.0967 -75.8914 -212.199)
(-180.734 -112.078 -263.138)
(-115.191 -132.464 273.418)
(-107.997 -68.7375 171.927)
(-59.5861 43.8166 111.794)
(16.3194 -198.713 -192.23)
(-144.845 220.108 109.24)
(-72.9826 -232.774 -172.793)
(-250.781 -14.2141 331.753)
(243.443 20.3076 70.2497)
(209.3 -108.283 121.463)
(151.946 0.962221 -593.775)
(45.4097 77.777 -172.325)
(20.7741 -149.892 331.52)
(24.1452 26.9635 122.257)
(131.988 -348.879 579.167)
(-312.187 -21.1165 146.618)
(283.443 91.7641 14.5046)
(-145.137 -410.987 127.811)
(231.051 36.8132 9.25815)
(37.9597 271.381 202.701)
(187.707 229.65 -37.2841)
(-96.958 573.466 143.137)
(-76.5257 356.482 -781.304)
(-18.2044 347.912 -285.968)
(-496.436 257.808 -187.6)
(53.431 53.029 -85.0436)
(159.605 497.592 185.843)
(24.6285 356.292 216.806)
(186.666 -130.303 -87.8356)
(-464.769 -250.69 -269.848)
(-272.96 -192.241 -373.311)
(-89.4033 -145.729 -59.5811)
(27.2668 3.90925 -47.565)
(0.648215 277.726 229.357)
(-49.7014 -282.622 -202.176)
(-1.41986 -94.7751 121.091)
(-207.318 -145.689 -415.332)
(-354.898 315.395 -434.579)
(43.5723 -124.687 319.995)
(-320.053 -153.577 -79.6679)
(-31.1784 315.676 -306.319)
(227.016 -27.8768 -89.2529)
(-162.524 -254.892 -126.917)
(-62.403 -130.379 222.542)
(-442.705 -87.3336 -247.361)
(-48.8233 -40.2742 -26.1466)
(-105.457 -97.7222 138.299)
(-86.3978 -150.7 -167.938)
(425.134 -298.161 97.1452)
(65.8365 437.989 150.242)
(50.6343 -141.144 -26.2743)
(303.868 122.666 41.9526)
(518.773 -228.578 -104.264)
(153.233 -123.023 157.244)
(158.865 278.219 365.399)
(-180.22 -166.585 -149.055)
(60.9401 -393.093 -344.227)
(294.562 165.388 -114.693)
(-7.0987 48.0363 -65.5668)
(164.944 203.805 -132.726)
(236.432 -418.257 214.85)
(18.1336 -125.398 -238.82)
(369.289 -84.3291 87.4952)
(-154.288 128.363 201.188)
(-400.997 -132.625 -260.125)
(249.678 3.56044 299.499)
(310.715 -140.846 137.981)
(22.7879 192.194 157.511)
(157.117 -244.953 -264.272)
(399.294 362.009 264.071)
(399.003 -219.789 108.868)
(313.823 -126.479 140.586)
(-381.106 198.725 -59.5672)
(15.6884 142.296 -64.4944)
(222.085 -24.7424 38.9706)
(260.872 -177.844 -97.3903)
(473.469 235.537 64.6528)
(-73.8114 14.296 -90.8065)
(-301.496 -261.484 -6.64594)
(302.647 244.781 -425.011)
(-113.999 261.244 126.894)
(221.39 65.6242 129.717)
(151.719 -50.8163 -376.081)
(164.133 380.313 80.2456)
(-65.7752 93.88 -101.971)
(287.289 344.142 83.0158)
(248.473 541.597 -14.9533)
(-197.128 -22.7241 409.891)
(96.1451 162.254 -85.4723)
(31.4784 -143.845 -168.45)
(185.98 -113.441 -97.5751)
(-100.214 -74.613 -264.718)
(-38.3436 -457.249 -119.261)
(73.7564 -120.425 25.5884)
(-33.0468 113.71 141.113)
(155.775 -449.024 -53.6128)
(317.305 -224.767 -322.398)
(178.051 118.197 90.1372)
(221.908 73.0961 -59.5317)
(-159.029 101.74 17.229)
(250.005 -173.871 299.124)
(-3.38972 -326.266 -1.45736)
(108.691 315.095 97.2951)
(161.576 -172.107 28.0989)
(60.3968 -186.61 300.273)
(277.577 -45.7204 -40.2285)
(281.195 141.583 170.899)
(-285.013 -262.89 -142.966)
(254.557 12.7657 96.1187)
(-204.139 -69.4602 -130.181)
(-196.464 -57.3427 -181.014)
(53.5556 -30.4944 131.502)
(220.762 147.06 -201.526)
(-146.24 484.984 45.4224)
(259.756 -176.361 -296.223)
(368.332 66.8305 -35.0375)
(212.977 -450.024 196.018)
(19.8416 32.4924 -429.135)
(-389.987 18.6367 149.027)
(-12.5482 49.8277 294.112)
(298.71 306.651 266.133)
(-350.639 147.455 -52.9342)
(13.7209 57.4665 177.497)
(342.537 -295.466 13.276)
(-66.3272 131.773 -140.131)
(-156.905 214.659 144.143)
(401.212 76.0095 -575.661)
(-53.1639 -167.903 341.364)
(88.7214 168.335 171.133)
(-119.544 -115.38 -107.769)
(36.2438 -258.699 3.89692)
(76.8293 106.931 86.3713)
(242.405 27.9857 187.456)
(-148.911 193.704 108.572)
(-2.53892 30.1558 -273.342)
(-99.4125 -36.6137 189.638)
(210.006 -77.707 -253.862)
(300.744 107.031 87.8511)
(192.633 120.788 -188.509)
(237.853 -119.207 -4.11161)
(-207.419 -298.491 -208.821)
(-125.578 -214.083 142.604)
(-147.875 448.467 -33.9513)
(-551 -317.505 135.273)
(296.62 293.947 -132.36)
(-435.36 74.2985 283.336)
(-124.484 -308.655 6.76433)
(74.8633 375.682 369.638)
(-27.422 -559.627 -245.872)
(113.036 -121.221 -172.617)
(57.1098 24.4405 164.287)
(4.86249 84.471 146.498)
(391.483 479.423 -76.9119)
(-258.94 -30.9157 -100.119)
(-23.3725 311.2 51.8537)
(-272.026 496.009 -182.033)
(-366.184 -215.497 -134.07)
(-354.837 -144.514 92.7234)
(11.3221 -219.2 -245.917)
(-227.291 -77.1592 180.296)
(-232.746 -12.3876 -148.987)
(249.168 374.507 -468.746)
(-251.348 79.1192 -408.199)
(-15.5965 -493.705 195.293)
(-48.0452 16.7247 19.8707)
(2.45824 494.68 -53.7381)
(235.039 121.055 -169.121)
(264.557 -63.8945 182.02)
(-77.0614 149.089 210.774)
(236.536 -60.8965 -400.064)
(192.126 -272.567 -40.8637)
(-123.903 -50.4059 116.727)
(26.208 -282.396 229.406)
(-329.744 -139.285 256.001)
(-85.8857 -70.0763 23.1215)
(-86.7167 -94.9726 445.581)
(-129.342 316.13 -137.365)
(177.382 -89.4289 -133.265)
(-121.392 -145.43 268.865)
(-87.2665 88.5454 -256.166)
(-403.467 -212.271 100.533)
(-256.104 101.885 -76.1151)
(-316.256 -451.019 -188.068)
(33.8845 97.439 262.176)
(623.157 56.547 76.9388)
(-151.109 -23.1539 121.762)
(19.2906 84.0414 55.519)
(-288.488 73.125 -141.076)
(-138.343 -126.065 -23.0994)
(273.264 -100.382 -292.096)
(-207.147 307.277 41.7306)
(-129.067 242.434 133.892)
(-159.859 -401.384 140.962)
(44.1466 70.6607 195.113)
(-258.928 145.053 -201.797)
(-185.96 174.09 -447.37)
(110.202 -166.19 -116.506)
(143.85 46.0633 -59.9485)
(310.957 411.939 -212.635)
(200.842 266.155 147.656)
(28.5612 46.1492 75.9913)
(15.3399 -239.827 -268.66)
(91.4305 78.2932 423.648)
(-97.3237 25.8994 -134.218)
(271.693 -271.386 455.688)
(-92.8148 159.232 -271.023)
(196.906 176.579 -375.233)
(225.869 126.349 224.317)
(14.6087 -97.9918 18.1246)
(388.91 -171.999 -280.203)
(411.69 -111.575 63.7661)
(-45.9279 -59.12 71.1412)
(-170.544 -22.9144 26.826)
(558.511 -96.0873 -150.03)
(-269.747 35.0914 -135.804)
(184.22 239.139 370.003)
(-406.307 -92.4679 -184.623)
(-361.376 -127.232 -39.8017)
(205.922 -182.286 42.0385)
(211.419 64.1482 -344.11)
(-233.248 102.508 287.398)
(204.806 -319.67 -304.409)
(419.029 -434.345 -417.817)
(-243.701 -17.6484 -26.2477)
(333.195 226.358 -191.177)
(-185.57 54.786 254.674)
(263.578 -158.465 -230.616)
(-94.6767 -187.768 305.3)
(259.503 33.8918 -13.0707)
(18.897 193.446 -414.16)
(-223.034 -46.8955 -49.8675)
(183.333 121.631 93.1901)
(-214.996 172.733 337.509)
(140.793 97.1897 64.1516)
(-282.149 35.9178 114.842)
(-52.7669 -95.7802 125.962)
(-538.14 825.276 390.1)
(-183.729 138.757 -161.354)
(-53.5828 271.666 -182.977)
(156.132 -108.356 120.539)
(147.184 56.338 -194.892)
(-128.116 240.882 -188.917)
(-31.3434 -68.7421 61.8321)
(11.9919 -100.573 5.37261)
(-11.1687 -23.1284 82.1496)
(506.721 47.8324 492.694)
(-350.03 349.882 -151.061)
(-361.842 -93.235 -279.105)
(48.7872 92.7087 -588.152)
(-135.339 -69.0451 281.216)
(-88.8598 141.966 138.929)
(169.798 152.529 -8.29508)
(221.443 -126.294 83.4856)
(76.029 172.364 -116.82)
(-166.37 -279.076 165.856)
(179.64 488.223 338.879)
(120.163 -158.033 71.546)
(-15.9272 225.824 24.5626)
(50.4079 -413.274 53.2318)
(496.248 74.1639 -35.6427)
(115.097 22.8632 -428.615)
(24.2821 288.155 143.367)
(39.0644 53.3878 -68.4339)
(-265.786 38.4047 220.58)
(-419.07 225.145 -101.963)
(-79.5376 105.406 72.9412)
(-589.471 -137.443 213.377)
(220.224 -181.849 -128.713)
(-182.733 -165.488 505.675)
(-102.88 -54.6381 -191.663)
(95.2803 -199.571 -290.9)
(-434.612 357.118 350.26)
(176.749 -209.074 15.8547)
(165.094 128.488 -13.2298)
(-206.386 200.597 -417.599)
(-121.81 -525.377 52.2026)
(-180.586 140.031 165.027)
(-200.549 0.908716 210.514)
(335.051 -72.7723 17.5534)
(387.519 -2.08087 -304.149)
(40.97 301.246 253.655)
(-36.9806 -369.579 -34.6172)
(-139.237 67.7758 35.4051)
(-30.7045 219.298 125.734)
(-323.243 21.8882 331.531)
(-317.424 33.1685 -390.063)
(129.06 4.91673 -215.111)
(1.60825 274.561 -311.507)
(-131.714 52.2374 149.932)
(72.4379 100.157 44.4933)
(190.961 301.774 155.868)
(121.225 -32.2187 63.8319)
(-74.4957 186.69 161.205)
(-422.331 -20.2003 3.20358)
(460.665 626.852 95.5458)
(-151.328 -441.081 31.2054)
(86.5903 292.559 100.29)
(376.406 362.54 -240.77)
(166.663 -5.43955 -194.52)
(162.47 -20.0493 85.3565)
(289.137 46.3405 72.6282)
(164.105 -154.686 -92.3502)
(-123.18 130.805 -68.2553)
(105.263 122.533 339.618)
(29.4531 -141.064 302.462)
(-374.648 16.7439 196.69)
(-99.7818 140.093 -92.0159)
(195.553 16.8345 -204.299)
(-214.727 -41.6218 47.6073)
(179.319 25.8249 134.812)
(48.7259 32.3414 -10.452)
(113.618 129.159 -42.1142)
(209.484 145.851 -32.3063)
(149.317 107.418 306.072)
(-42.8449 -216.663 -62.4373)
(497.894 -145.656 6.63247)
(-180.304 -317.186 -25.1584)
(36.3609 -258.719 -168.345)
(15.532 170.175 470.847)
(-62.9957 462.054 -118.375)
(-37.8267 30.5701 45.1416)
(-26.5181 -94.1867 -152.803)
(474.99 -87.8745 384.873)
(-26.2041 54.286 333.829)
(-18.1094 -8.91749 -389.16)
(-380.706 -51.0822 -182.432)
(155.111 432.598 128.6)
(-95.4195 -130.292 -52.5049)
(114.592 72.3687 -251.792)
(100.261 394.719 245.641)
(171.789 88.3398 149.703)
(-381.038 45.176 -268.578)
(362.122 -51.4229 -52.4935)
(22.7513 159.726 -168.576)
(141.396 111.749 53.9721)
(5.79922 -131.995 133.746)
(100.219 -261.568 -249.93)
(-301.908 -30.7758 -24.7885)
(297.463 -131.988 -110.465)
(446.347 150.344 -521.202)
(9.51644 239.156 -44.5707)
(163.921 -88.0224 -54.6069)
(-17.087 167.79 85.0581)
(64.3579 128.168 12.0145)
(-325.163 -47.5096 157.107)
(3.22728 77.6037 311.557)
(-461.204 -324.423 47.0157)
(0.593766 128.962 -11.3801)
(-221.402 119.212 68.9037)
(64.4771 62.0484 -74.7443)
(181.796 -38.8916 86.6408)
(10.1187 -416.153 181.159)
(-84.2756 -39.8656 -170.052)
(-229.724 255.548 168.315)
(-108.683 -175.29 -298.657)
(-11.9953 -144.32 -11.0387)
(-40.2489 413.767 -265.865)
(55.3613 -8.35547 291.051)
(-326.438 89.8699 -35.8029)
(156.473 -123.386 -174.153)
(83.439 -15.0373 77.4584)
(378.133 60.8602 -113.028)
(386.243 120.822 -108.576)
(-383.854 57.5573 -251.274)
(57.528 409.863 443.997)
(158.522 -203.032 43.8896)
(52.6597 117.293 253.62)
(276.379 -28.3071 -274.015)
(255.063 -76.9425 -252.445)
(-240.366 -43.3801 -245.029)
(126.407 390.838 -338.58)
(137.603 -331.706 -89.4684)
(-221.184 -100.717 -33.1995)
(181.379 80.519 247.23)
(-537.422 422.865 78.11)
(28.8422 334.831 -30.468)
(80.137 256.301 -18.8202)
(172.729 -61.5931 293.996)
(32.084 75.3035 36.1168)
(210.799 -1.99133 -83.0191)
(-67.1821 142.021 89.5654)
(269.668 -119.517 -343.892)
(131.459 86.948 -328.719)
(189.103 39.7478 34.6317)
(481.955 312.142 413.428)
(-32.376 235.919 150.207)
(61.2612 -21.4082 -133.345)
(-428.502 436.264 -247.515)
(-81.7514 20.9135 607.813)
(409.451 76.2638 141.253)
(59.807 181.877 -108.881)
(72.7215 -173.899 265.406)
(-54.2078 -2.26966 290.4)
(-47.6497 -19.104 -214.057)
(43.3083 36.2748 47.9138)
(191.759 -154.847 -76.2301)
(230.05 189.197 80.3945)
(-140.269 -20.2266 35.9583)
(-7.53238 266.65 -62.5766)
(-473.581 -291.573 -242.662)
(-605.147 175 30.1725)
(63.6403 154.585 -85.9706)
(-79.35 -174.989 138.664)
(-95.1638 -6.27228 -177.226)
(-131.186 -5.55904 224.04)
(-645.833 155.806 -125.578)
(-111.331 -243.472 458.793)
(-323.493 118.297 254.64)
(29.8539 -197.789 -110.291)
(-138.257 15.3197 -308.866)
(-296.422 4.04087 -180.105)
(-311.355 -415.321 -72.4371)
(-248.448 273.345 -199.86)
(320.494 34.6666 -338.035)
(446.351 65.4688 57.7062)
(60.5593 229.142 46.1076)
(237.263 235.901 -68.1418)
(-444.422 172.42 -54.639)
(10.1974 -220.161 102.497)
(36.825 -52.396 -261.356)
(35.2121 -18.8098 -383.217)
(-112.91 -132.799 221.592)
(-300.065 11.7244 32.8891)
(110.938 112.123 237.368)
(270.168 197.254 210.078)
(-46.4389 -259.667 -46.3232)
(-10.3836 -17.3401 -15.9281)
(111.356 -558.128 -78.3609)
(207.163 -618.592 -149.778)
(210.888 29.2467 278.178)
(-54.0419 -208.819 -62.1394)
(22.2232 251.52 15.0056)
(-102.115 -423.487 -232.142)
(76.0861 62.443 64.8423)
(-27.6964 152.473 209.75)
(160.817 -100.411 -189.636)
(-141.783 -280.974 197.636)
(-160.218 145.33 61.2151)