/*--------------------------------*- C++ -*----------------------------------*\
  =========                 |
  \\      /  F ield         | OpenFOAM: The Open Source CFD Toolbox
   \\    /   O peration     | Website:  https://openfoam.org
    \\  /    A nd           | Version:  7
     \\/     M anipulation  |
\*---------------------------------------------------------------------------*/
FoamFile
{
    version     2.0;
    format      ascii;
    class       vectorField;
    location    "0/lagrangian/dsmc";
    object      U;
}
// * * * * * * * * * * * * * * * * * * * * * * * * * * * * * * * * * * * * * //


9220
(
(-191.486 246.036 33.7313)
(-370.561 107.246 -515.541)
(81.1287 -156.738 137.426)
(-480.829 98.3268 -216.453)
(685.323 467.983 -16.4436)
(-16.0085 576.528 175.11)
(-328.377 -257.095 -263.307)
(13.1724 362.996 511.325)
(-47.9993 44.8179 -367.802)
(126.146 -402.414 168.408)
(389.005 -78.4135 -99.5299)
(-168.912 -597.313 -352.096)
(171.132 44.0592 320.732)
(345.644 381.618 -395.73)
(-391.481 -8.76868 243.792)
(-54.0681 -43.2236 458.704)
(-429.848 -274.518 -175.66)
(-182.543 -277.505 -182.173)
(-225.854 -96.2724 -109.301)
(-38.0962 -68.0429 5.06549)
(4.52279 22.0653 -52.3441)
(-33.869 -437.146 -257.693)
(27.9749 -34.4785 -372.156)
(-25.4975 3.32198 -341.447)
(32.4379 523.638 374.074)
(80.2875 -536.194 625.206)
(-280.785 -160.972 -296.944)
(-151.438 9.52469 259.594)
(479.807 49.6386 435.008)
(-74.2685 105.923 -199.494)
(-138.782 -309.775 127.849)
(152.905 -230.306 -520.484)
(-170.946 264.166 -160.131)
(-38.2825 709.87 505.474)
(418.182 -397.344 -94.4556)
(157.021 490.38 -170.738)
(-91.9822 -155.726 -420.669)
(369.305 -185.087 -253.099)
(177.445 650.929 94.3619)
(-625.411 -91.9319 -458.412)
(493.482 38.511 88.6826)
(-134.796 -118.151 -92.4744)
(-273.037 333.955 -535.152)
(155.105 -198.826 -296.333)
(222.328 -59.3335 167.704)
(-13.6282 -204.743 248.231)
(177.219 388.119 -63.95)
(-595.879 -161.608 -163.987)
(557.304 197.183 -172.858)
(-168.014 -349.027 -361.938)
(-34.4076 -313.076 80.3755)
(-18.69 -395.886 295.561)
(-96.2657 239.828 33.5776)
(22.1342 273.958 -166.101)
(527.834 160.896 -180.993)
(-42.1138 -140.552 27.4845)
(-370.331 -131.036 84.994)
(-189.444 98.2882 -215.288)
(280.348 -420.86 -151.15)
(-353.789 297.59 -43.9453)
(544.297 231.364 53.6427)
(-43.2179 230.667 85.2831)
(9.93817 -25.7567 -428.102)
(-235.171 -163.053 155.301)
(335.45 420.017 107.776)
(-616.722 454.672 -140.243)
(-187.128 -57.284 -281.142)
(-359.99 -296.238 -58.6627)
(-15.3612 453.209 373.982)
(-267.686 253.706 -324.561)
(-24.7397 112.124 -116.881)
(484.545 -415.675 102.957)
(474.43 -143.998 740.749)
(176.19 -474.913 182.085)
(196.892 -266.505 -153.596)
(27.0989 331.933 -252.93)
(-62.0691 15.4085 -290.437)
(350.731 -778.392 273.609)
(-219.002 295.551 106.461)
(61.702 70.2563 -244.922)
(-539.784 9.70309 -213.216)
(-250.995 -158.473 -133.617)
(-135.744 -249.377 -181.372)
(173.674 -393.538 95.4058)
(-192.954 -102.77 -107.599)
(-763.529 -99.432 227.405)
(-234.189 -66.2677 -556.939)
(-148.224 76.9476 -188.127)
(716.806 574.577 -23.8842)
(-162.579 -354.459 170.81)
(-214.406 -110.168 308.307)
(170.439 736.869 45.6859)
(725.969 -353.818 305.17)
(-323.161 -23.6638 334.985)
(-578.624 32.9721 20.8347)
(-61.6974 161.702 17.9886)
(177.575 475.549 210.536)
(118.636 86.9933 -342.702)
(268.54 258.267 -90.5236)
(132.125 -107.387 295.76)
(106.023 -142.386 165.171)
(713.477 -135.917 -484.084)
(343.465 -209.589 -394.12)
(572.675 -315.48 190.542)
(206.424 -71.3338 131.682)
(21.0381 172.266 4.64822)
(-399.716 370.493 -359.17)
(-95.6307 -110.036 -45.3294)
(190.034 -94.9084 -191.227)
(-360.678 -601.76 99.7715)
(20.3475 -475.88 -166.381)
(313.087 -135.933 277.05)
(-15.7051 -306.089 398.219)
(376.573 -75.5567 295.08)
(89.5139 170.074 -339.627)
(-270.069 187.674 48.6433)
(-298.273 -22.7216 -451.235)
(-74.7318 387.105 3.28651)
(565.443 -528.697 -237.431)
(258.459 181.911 53.04)
(315.862 -143.379 549.541)
(-228.437 112.836 137.962)
(-365.34 111.898 29.6708)
(281.987 43.98 -49.656)
(134.961 190.712 -441.882)
(-127.874 315.92 -204.66)
(-316.417 -257.56 78.8856)
(-59.7552 370.666 216.23)
(425.508 -410.619 -211.529)
(414.252 342.651 47.4784)
(380.87 283.083 418.141)
(640.369 403.648 -381.656)
(-39.4067 -63.9415 -885.782)
(524.909 66.4324 -524.216)
(278.498 -440.635 609.317)
(-267.694 373.351 61.5567)
(-46.7549 -297.325 318.067)
(-208.532 255.932 -433.735)
(-241.8 252.62 -465.273)
(268.837 -62.1751 254.124)
(182.463 -265.439 -420.055)
(159.476 299.964 342.864)
(204.766 -598.355 -396.334)
(-504.761 244.044 -119.647)
(-0.821309 -119.001 -364.988)
(-221.965 190.974 388.888)
(-276.754 124.387 113.106)
(-387.074 158.038 -7.69346)
(116.902 115.412 -45.9198)
(28.441 173.234 -192.622)
(201.347 332.187 697.675)
(-73.1784 405.405 -46.5251)
(197.77 -145.772 462.909)
(-156.712 -109.683 454.554)
(589.073 -179.762 -418.886)
(160.115 218.774 37.834)
(-139.824 324.822 157.022)
(-230.324 -33.8758 244.316)
(97.0811 -250.982 489.524)
(302.112 115.323 -60.6887)
(120.66 -280.929 439.556)
(671.253 187.915 -244.941)
(-469.477 -370.442 292.56)
(-512.526 -366.533 114.528)
(-134.26 117.737 402.383)
(449.887 -688.541 16.0476)
(174.216 110.184 -37.3883)
(-276.827 229.721 79.5462)
(-278.112 661.054 -195.242)
(-302.988 42.1717 587.188)
(-142.128 217.809 442.142)
(-108.503 -383.285 -185.578)
(426.233 -369.33 -101.065)
(-195.1 226.126 97.9115)
(-106.548 206.28 75.1242)
(145.748 -269.124 -113.624)
(-262.712 422.148 -544.94)
(205.839 -426.259 42.6901)
(-430.59 -197.736 233.243)
(118.823 -383.278 -72.2062)
(-258.778 -420.445 7.38991)
(372.47 366.48 558.53)
(-223.349 319.843 -102.156)
(731.124 -18.6834 -427.934)
(242.703 96.1837 233.468)
(-317.835 -125.019 -187.475)
(-278.434 84.2906 -27.9258)
(427.654 -450.698 264.942)
(-126.109 -170.384 15.0101)
(179.23 -183.357 381.45)
(-1.8389 -174.184 -369.907)
(-11.7231 122.045 -72.8903)
(333.39 -194.548 396.535)
(57.5261 241.61 -6.14413)
(67.6806 -203.197 -316.817)
(-67.1611 126.705 27.3026)
(262.545 40.8939 -255.945)
(-217.139 208.274 -55.2238)
(364.808 -157.539 -407.718)
(-254.409 -109.357 427.614)
(48.9274 23.4686 -146.376)
(437.268 675.167 417.129)
(558.019 -621.406 387.235)
(588.098 -88.17 -240.805)
(-308.787 463.643 -72.0547)
(-340.418 62.3994 -184.254)
(350.526 96.026 466.325)
(-168.044 142.515 244.715)
(-93.3022 -152.424 -207.248)
(157.832 -264.519 57.6004)
(178.325 220.372 165.71)
(-689.628 55.5634 -299.324)
(-603.033 121.68 50.2192)
(-55.5988 -134.948 -337.229)
(-501.879 142.988 14.4823)
(518.697 457.208 -123.784)
(-428.09 169.724 -0.427161)
(-124.887 126.235 -9.78739)
(313.977 -267.136 -97.2352)
(-115.51 254 -467.992)
(-329.436 277.169 119.031)
(284.751 411.06 -79.9091)
(-905.27 -213.867 141.401)
(-99.3106 425.731 123.773)
(352.689 -136.273 -34.3391)
(175.561 -171.929 183.246)
(179.039 15.1122 447.306)
(-66.2503 134.433 -320.64)
(351.808 -127.36 581.538)
(-189.381 -130.344 -520.629)
(349.743 259.466 349.903)
(82.4344 515.703 479.808)
(-498.86 -125.361 -254.564)
(-189.425 70.1905 -23.5505)
(-276.282 -215.214 202.181)
(441.527 -477.759 77.3231)
(150.79 -6.65932 169.574)
(-310.532 73.579 -237.003)
(-169.006 -10.86 93.145)
(-74.2654 -128.29 68.7937)
(394.011 291.489 341.339)
(-126.347 266.292 115.126)
(372.009 158.379 -375.158)
(436.671 -242.048 -31.2983)
(364.3 44.6714 179.526)
(-134.285 430.14 -333.3)
(-337.313 435.755 -51.0747)
(-67.3286 -237.034 100.331)
(27.9892 202.381 -216.564)
(-208.603 121.001 -443.913)
(-198.521 178.191 180.724)
(63.2671 -44.7976 252.98)
(572.129 465.524 -155.471)
(-2.1213 95.3516 665.624)
(158.865 182.875 -216.891)
(-422.685 495.599 -64.6627)
(-401.481 217.779 134.075)
(-725.145 3.09862 266.334)
(-394.721 2.54071 -17.5173)
(424.497 -1.74019 -15.303)
(-23.9162 581.235 -59.7159)
(-33.5298 217.883 28.1891)
(-408.018 131.383 -56.0662)
(-135.525 -599.492 -802.436)
(108.093 -69.8717 -43.7192)
(16.7595 -560.844 65.5829)
(-50.3247 -51.8856 188.882)
(72.9378 151.807 14.0291)
(-300.628 -116.643 -72.4455)
(-425.197 358.63 -61.0859)
(375.726 357.408 513.229)
(-885.469 171.109 241.807)
(46.613 74.935 49.3154)
(297.862 -612.089 194.297)
(73.4377 86.296 -4.3407)
(426.386 -339.373 -88.4919)
(398.714 -30.8671 573.441)
(278.947 -175.126 442.814)
(384.515 86.793 105.45)
(-189.371 -31.0204 585.99)
(160.224 302.918 589.697)
(-93.3574 464.105 -69.4582)
(-736.265 -71.0876 129.366)
(-34.5333 -454.466 104.795)
(-479.165 242.094 -506.604)
(-473.968 83.8696 -487.25)
(-515.122 -194.189 -414.952)
(19.774 -136.893 -278.876)
(-274.899 -425.457 427.335)
(115.893 -458.552 -283.108)
(-436.731 -208.539 82.3363)
(211.18 -56.652 -157.247)
(307.871 -117.418 -244.057)
(2.52423 166.699 43.6299)
(56.3688 -678.149 -203.029)
(-269.482 -704.586 121.398)
(-361.42 -282.09 81.0989)
(133.618 -149.639 -295.47)
(-724.191 308.151 163.449)
(404.156 94.5061 -299.321)
(27.8354 -111.465 398.584)
(-273.787 -342.999 62.0035)
(179.187 235.483 291.765)
(-306.968 24.1597 -415.882)
(46.3804 118.645 336.168)
(352.754 -23.923 -197.286)
(131.896 404.791 -308.289)
(-429.022 -548.871 177.792)
(-161.839 -222.697 -665.849)
(-183.166 -336.724 134.567)
(-36.0997 547.391 336.148)
(543.523 -191.67 -95.2603)
(-98.2017 -197.64 264.061)
(128.226 -123.764 -391.08)
(257.983 -135.228 -409.129)
(345.196 -244.567 -36.7868)
(272.515 14.6661 -653.906)
(-384.766 -562.605 -106.256)
(127.277 151.452 -618.102)
(-233.861 -312.2 -181.52)
(407.523 281.714 -485.378)
(-511.076 379.371 -381.834)
(-32.5592 254.251 -350.909)
(175.45 -109.194 -114.477)
(-312.114 -186.749 -367.545)
(252.686 22.8387 157.424)
(422.842 -485.52 347.181)
(504.871 381.259 -282.697)
(-419.783 114.747 -99.0946)
(-137.945 23.9534 63.5914)
(497.813 -190.645 257.928)
(130.761 240.817 -205.778)
(276.983 243.237 -84.8331)
(-187.799 -20.8697 -135.731)
(115.78 -260.467 -153.672)
(-148.965 -57.7196 -387.683)
(302.37 261.644 587.103)
(334.711 188.806 18.8065)
(-266.174 -223.54 -225.322)
(250.293 -251.857 240.336)
(-176.783 -280.066 -122.318)
(-379.616 332.006 84.6263)
(30.9772 100.062 379.201)
(-375.831 -44.7649 -192.129)
(-174.366 475.171 135.587)
(-37.8425 180.231 74.1738)
(-300.732 106.051 -171.464)
(-377.973 -91.4656 -429.435)
(-276.389 -25.0033 -1.28688)
(-37.5952 -280.482 -365.888)
(-104.021 -272.011 173.162)
(234.831 -400.107 126.989)
(-141.722 37.2831 -489.965)
(342.853 -204.983 -539.622)
(-264.082 540.167 -298.551)
(273.524 196.054 -195.978)
(-353.937 -74.6578 -730.068)
(153.02 -262.348 -19.4307)
(-197.737 3.98598 109.905)
(-33.1794 182.878 -7.58085)
(-389.407 370.767 207.957)
(-296.568 -339.701 1.11175)
(-252.505 23.6373 -192.318)
(-223.321 -12.4935 175.331)
(-367.89 316.796 -98.1888)
(-333.311 -319.723 92.9511)
(-154.028 -222.337 -249.06)
(-59.2199 77.8692 133.236)
(-470.238 -255.026 156.143)
(-125.302 -333.41 184.531)
(-300.24 -839.983 -628.816)
(-185.221 -5.63786 104.756)
(-230.978 477.635 60.9297)
(-290.633 -631.774 129.71)
(171.487 477.055 -143.73)
(-542.635 475.386 330.696)
(12.4338 351.781 -359.352)
(-355.214 27.5925 -295.472)
(-145.534 -190.585 -688.357)
(440.951 -134.071 -252.885)
(34.728 -136.952 32.4214)
(-180.762 -10.6057 -59.8257)
(324.441 388.218 165.934)
(-89.0447 292.807 244.664)
(-296.245 -13.5784 105.343)
(286.048 -259.098 -190.479)
(220.839 181.786 165.787)
(-373.531 592.779 -166.152)
(910.529 -253.299 -488.352)
(104.775 -84.8377 524.831)
(335.301 354.117 -607.928)
(492.714 -274.087 -1068.59)
(835.03 63.6456 -366.741)
(141.028 -9.06932 -136.253)
(140.513 39.0053 -161.652)
(-187.29 -217.373 -37.367)
(151.565 53.5221 71.288)
(7.71272 -314.21 30.2042)
(29.6531 211.422 -240.439)
(-463.867 175.069 -513.318)
(197.309 -270.255 -520.989)
(255.157 73.0735 146.164)
(-669.071 516.062 -196.878)
(-609.032 43.4867 -66.4592)
(-141.411 144.548 -106.624)
(117.35 249.924 140.802)
(171.163 178.674 -74.2581)
(770.989 491.107 -147.933)
(318.545 -44.6802 -218.274)
(-148.42 -82.3964 -444.657)
(-497.572 71.4977 -269.38)
(-174.197 -65.7778 -632.454)
(-26.6197 -47.9796 -163.375)
(-146.117 562.186 -747.067)
(18.5734 -214.103 395.813)
(185.637 340.748 9.12915)
(373.39 51.7052 -401.586)
(-83.3985 520.923 -295.961)
(-292.638 211.768 133.94)
(-363.839 -330.784 255.551)
(163.085 -164.11 180.829)
(-312.83 -179.601 10.335)
(212.067 750.825 -31.1157)
(31.8013 -38.8171 356.167)
(279.889 326.495 43.5594)
(131.78 -421.533 65.8525)
(138.277 113.004 -448.424)
(462.808 -410.612 -85.5547)
(252.15 441.265 152.691)
(-266.226 -12.4761 454.421)
(-164.19 405.058 231.534)
(-234.098 54.8196 -280.649)
(-65.3823 328.473 -195.118)
(-225.805 -145.965 2.12571)
(110.282 -185.978 -101.359)
(-797.771 -87.3687 434.21)
(448.681 -535.724 252.271)
(462.986 273.578 270.421)
(-46.0159 234.226 -140.577)
(-97.9506 243.722 32.018)
(-11.3346 298.592 -167.255)
(-298.588 358.826 -57.3865)
(260.054 55.4319 -130.704)
(153.902 244.308 -504.514)
(-309.449 -30.9217 -61.2161)
(-166.517 340.976 -372.96)
(-224.857 -382.285 -239.984)
(-453.971 229.76 -65.8545)
(-295.125 -74.277 -57.7689)
(-139.815 443.602 -95.6253)
(-235.211 208.437 -273.203)
(-342.037 -370.569 64.515)
(-95.7829 -191.527 465.754)
(-319.508 408.927 558.896)
(-768.116 106.743 -258.494)
(-257.096 -344.094 324.105)
(98.0368 -210.443 -427.93)
(-327.904 -109.451 164.266)
(-282.533 -241.525 -233.549)
(394.664 272.146 -283.115)
(-452.544 526.693 648.664)
(-211.084 -150.756 380.126)
(-484.247 -352.761 -288.561)
(-11.3643 240.923 52.0859)
(-513.1 144.052 511.583)
(449.087 305.958 266.735)
(90.8503 -23.9823 678.058)
(-823.019 58.288 120.397)
(652.896 164.945 172.011)
(-106.367 -29.9522 106.032)
(-426.394 150.016 115.958)
(178.469 -125.333 -800.313)
(76.1889 -396.989 23.0487)
(145.209 -0.701556 -175.641)
(-234.39 152.652 -189.229)
(-73.6571 143.261 -346.17)
(-575.876 -564.89 -7.97648)
(343.934 4.38906 -444.664)
(-164.962 64.8037 -98.3579)
(430.643 -514.488 -182.706)
(71.2857 -571.393 -47.8334)
(-181.457 194.814 193.893)
(11.4404 123.293 -100.03)
(394.232 536.951 88.9185)
(120.786 86.8637 631.77)
(-17.365 68.8593 -411.889)
(141.459 -186.52 639.174)
(-22.2768 -3.9366 20.0103)
(-139.229 27.2678 -56.446)
(111.448 175.133 -712.258)
(-73.2456 -279.437 367.758)
(424.034 -437.327 -396.904)
(267.144 -105.861 320.614)
(674.941 638.097 397.132)
(554.227 186.236 -210.386)
(158.503 -422.726 288.967)
(84.7853 465.679 544.704)
(-64.8485 228.23 -105.408)
(494.591 614.227 -80.5765)
(-91.9696 185.584 -749.409)
(-26.1993 -446.785 -188.16)
(-377.698 416.516 161.653)
(691.275 283.904 -381.412)
(158.662 -266.141 15.1397)
(25.2367 -317.556 359.229)
(296.216 -233.431 279.77)
(-346.483 873.249 -112.678)
(481.79 -76.7729 -328.389)
(-276.197 -342.582 -216.162)
(579.36 161.934 502.649)
(-405.033 288.856 -257.45)
(-239.384 629.591 -165.797)
(-101.133 74.5621 36.6739)
(83.5638 17.9642 17.4249)
(697.898 177.417 453.521)
(229.29 -451.799 147.74)
(-327.718 -310.569 70.6842)
(-211.376 202.148 -119.682)
(-544.151 146.481 431.677)
(98.6521 605.227 338.998)
(71.6312 294.674 -751.823)
(-547.27 -46.4755 218.505)
(64.141 -335.723 -224.643)
(106.925 62.8207 -7.41845)
(-291.38 158.37 283.484)
(-211.244 20.285 -700.141)
(102.446 580.78 141.381)
(-44.6012 -208.511 473.54)
(240.997 135.836 76.4513)
(-129.698 128.872 -170.813)
(-500.787 569.64 242.699)
(192.216 233.95 -45.4045)
(-405.562 254.744 407.766)
(-460.648 114.654 8.00122)
(448.423 -246.055 233.969)
(554.359 -270.055 -402.792)
(-1039.4 153.22 -320.698)
(-502.029 -217.511 -102.805)
(-469.498 -197.006 -167.146)
(154.852 550.366 -22.549)
(-142.617 -98.3866 549.347)
(-83.6088 -119.725 57.1087)
(22.4968 -104.46 -58.7553)
(-233.978 -10.2492 15.122)
(684.242 240.464 43.807)
(-55.0368 -214.43 264.78)
(172.871 286.005 -476.947)
(395.31 -83.8022 37.4402)
(-44.749 -499.334 -237.031)
(18.7005 96.0355 -46.1932)
(452.65 -387.15 263.887)
(-222.86 -207.385 4.27783)
(554.515 -266.22 -363.214)
(103.727 267.473 -108.7)
(-174.63 -336.598 -9.31057)
(-389.887 569.996 76.5273)
(257.311 132.797 -170.609)
(-588.947 -3.55808 434.362)
(81.771 363.79 -333.054)
(-209.809 551.678 161.906)
(2.57954 180.63 -85.8414)
(-213.183 -191.799 -124.956)
(119.874 316.727 -116.075)
(-376.832 -444.228 136.751)
(425.471 231.306 -575.067)
(-295.578 -57.7689 -234.265)
(-44.9797 -57.3066 -336.825)
(612.185 196.871 263.983)
(83.2974 -165.114 357.142)
(-383.551 -527.568 177.811)
(-195.065 -373.027 -488.563)
(202.765 308.192 266.614)
(-41.96 -539.34 -274.809)
(403.427 159.28 504.89)
(250.111 429.319 55.1928)
(249.652 248.028 320.212)
(-31.2925 551.116 59.9488)
(-357.478 401.677 642.707)
(103.94 -414.728 -237.159)
(-644.559 -262.565 209.162)
(-294.717 -554.101 337.496)
(313.235 266.862 -104.277)
(113.021 58.6224 -84.8984)
(290.2 -202.827 -492.99)
(-534.869 -114.14 -322.744)
(474.464 -290.127 74.2271)
(60.2374 370.793 -562.41)
(-185.968 -934.107 -13.3283)
(-3.2302 45.9373 454.107)
(-284.003 67.9354 39.2276)
(-14.9918 186.039 -113.068)
(78.9222 -272.775 -222.602)
(492.169 -18.0517 88.6432)
(250.578 424.43 95.3555)
(70.0923 522.934 -772.769)
(570.481 310.016 -155.955)
(-323.325 -156.687 -56.2606)
(402.428 -233.917 -512.943)
(487.514 -187.453 24.7365)
(160.247 -535.563 110.131)
(-314.918 -241.967 356.982)
(494.658 -262.16 -22.1486)
(-74.3084 -272.92 -173.312)
(-169.511 -230.33 -305.607)
(-247.973 -292.795 445.998)
(-270.316 695.025 -20.0036)
(-364.516 55.5425 -354.603)
(-168.201 -903.507 227.042)
(150.561 -398.294 396.235)
(212.038 6.51014 -301.653)
(421.458 200.333 49.4904)
(196.842 613.315 147.632)
(225.78 -857.659 -243.8)
(478.579 408.058 -168.822)
(159.699 110.373 157.409)
(-71.1538 -198.59 -265.369)
(-317.493 -16.8754 68.6705)
(351.459 -19.4721 316.344)
(102.055 -354.497 133.401)
(-53.4324 148.699 -124.272)
(-278.922 -346.444 -236.243)
(-595.904 -375.075 196.348)
(-171.246 424.862 446.349)
(-24.5535 320.213 154.099)
(-442.198 -156.672 -101.624)
(245.829 -232.896 368.276)
(-223.751 156.717 -46.6617)
(-116.727 226.778 -7.83316)
(314.599 377.477 290.406)
(222.024 150.231 598.766)
(187.385 -228.409 219.026)
(-31.0403 -87.574 112.157)
(423.597 -54.1023 12.1779)
(-404.707 -57.7718 -175.752)
(-213.47 689.248 307.295)
(-85.3106 107.934 268.816)
(-819.553 105.522 241.428)
(431.044 429.186 294.152)
(119.368 -133.022 375.496)
(-168.341 728.777 -238.138)
(-253.424 -579.353 -25.5509)
(832.313 -694.119 297.655)
(65.1312 693.401 -363.969)
(-500.821 -59.5213 -202.006)
(-524.61 -145.623 94.7324)
(227.328 -175.318 192.249)
(-121.086 -63.8505 300.084)
(-144.784 -36.6885 -201.701)
(-355.807 17.2687 -96.7876)
(-304.615 -139.915 -270.223)
(312.574 211.962 714.626)
(-350.803 281.259 227.198)
(752.769 -44.2387 329.792)
(-710.647 639.178 174.345)
(256.452 63.922 266.511)
(-382.019 153.367 -83.7675)
(33.292 139.912 37.276)
(138.466 -8.00022 -308.35)
(-317.61 -299.443 -195.779)
(-88.9789 216.571 37.5487)
(280.964 -9.55597 -289.975)
(-748.101 -133.764 35.4898)
(56.4607 273.49 307.914)
(-433.713 -149.795 13.6781)
(27.9919 -727.797 274.807)
(-344.23 -51.8845 319.661)
(211.46 -109.265 79.9614)
(-72.3827 -49.6611 -490.098)
(-253.354 499.067 -213.701)
(-24.4829 25.9321 152.314)
(119.435 -84.151 405.732)
(-266.655 -268.214 -235.41)
(-376.336 143.494 484.366)
(430.337 371.675 -193.411)
(-24.8538 -104.28 -210.565)
(275.62 640.189 200.655)
(-92.9368 468.906 -141.166)
(92.759 16.3237 20.6642)
(-421.794 -511.957 124.799)
(-612.762 55.7201 -186.954)
(-167.845 3.12433 -56.2553)
(-68.6267 -267.671 32.493)
(237.173 323.473 -89.778)
(47.3604 26.5395 127.81)
(-530.112 -324.274 -1141.32)
(-173.381 62.7965 -181.324)
(75.0369 102.622 -380.679)
(-119.63 127.275 199.494)
(-427.731 -48.6075 -87.9993)
(-364.665 -159.838 86.6197)
(255.118 -181.616 -8.04426)
(577.002 389.838 67.8835)
(-399.729 -13.6716 -382.563)
(-5.07692 274.551 -656.469)
(300.779 -218.15 239.208)
(-334.767 238.73 144.065)
(250.689 -75.4685 42.4633)
(-310.299 211.654 23.7568)
(204.936 296.496 90.709)
(439.531 203.565 40.7271)
(244.093 37.5745 -177.784)
(217.306 -70.2832 78.5324)
(58.0515 51.1143 276.731)
(-205.386 423.58 -224.803)
(309.292 -193.783 282.333)
(-375.715 -475.306 -274.969)
(254.414 200.576 875.246)
(540.443 -63.0542 -426.539)
(-39.7847 758.79 54.2308)
(209.899 -60.9267 -2.96914)
(-170.38 164.206 35.5565)
(302.625 307.738 306.033)
(89.662 99.3793 -310.39)
(76.2619 -331.959 -424.468)
(296.684 109.318 442.477)
(115.184 -172.663 210.982)
(-327.558 -214.449 470.342)
(-6.95464 -459.919 -219.448)
(71.7781 215.321 -211.445)
(-26.1055 -268.456 -301.188)
(537.87 -246.035 -471.51)
(-95.8753 8.8461 -696.889)
(-80.2387 259.305 -362.544)
(496.938 109.04 -311.61)
(393.939 85.0996 74.4662)
(35.6977 -120.325 -347.695)
(641.496 303.63 -243.746)
(-528.518 -357.499 150.459)
(311.42 -248.209 134.977)
(-346.853 -66.4677 95.8952)
(-30.878 3.50326 -148.278)
(-464.255 -71.7798 -235.674)
(-164.055 692.746 -304.92)
(-48.8284 -206.016 -453.399)
(-564.162 -108.746 285.124)
(86.6781 359.855 -333.328)
(131.688 -52.1595 373.659)
(-76.8466 -433.282 -187.646)
(-46.0059 328.527 283.831)
(-426.595 -319.849 211.684)
(251.04 -123.855 273.931)
(68.1959 146.56 -33.389)
(180.203 358.484 119.886)
(443.854 -55.9943 -182.189)
(-608.331 225.935 114.857)
(-693.826 -392.437 502.942)
(516.318 380.974 90.7482)
(-179.584 -475.133 408.157)
(-558.121 103.73 160.66)
(120.095 325.843 -257.291)
(285.853 -222.226 -46.1933)
(91.217 20.8775 881.005)
(-114.35 652.971 5.21304)
(-112.862 -249.759 -447.255)
(-116.425 422.88 -321.136)
(-77.7323 -514.969 248.119)
(274.399 216.134 -197.45)
(74.7649 512.573 258.136)
(190.019 -477.277 -5.37773)
(167.338 -514.912 286.019)
(70.0634 50.525 79.0631)
(-222.21 -294.531 74.4569)
(129.968 406.015 -40.5453)
(-11.046 69.425 73.5628)
(-184.511 98.8076 27.8859)
(-290.691 -164.136 -156.648)
(-41.2443 90.3022 -136.201)
(-97.6088 275.139 -151.981)
(-96.8062 -201.771 255.981)
(-606.999 -45.2516 -150.977)
(236.572 -1046.84 -156.959)
(295.37 191.207 499.4)
(-24.8945 -23.9645 -482.947)
(65.4443 310.919 412.371)
(24.6069 -264.914 -130.002)
(-416.34 177.095 -170.406)
(72.3575 -105.424 -373.139)
(273.258 205.821 -111.194)
(-518.596 -11.6702 -408.86)
(367.808 65.501 220.35)
(-296.625 -12.3852 -265.753)
(98.5873 -128.308 -111.885)
(142.202 36.8402 245.674)
(-68.2856 -59.6851 543.024)
(-309.218 14.7824 68.4734)
(50.8657 -269.456 -224.073)
(-476.267 -578.272 111.327)
(171.424 99.1829 -1.58747)
(-445.412 -69.8813 8.91342)
(194.213 71.5789 56.7948)
(9.47627 -196.505 445.227)
(-129.027 -390.945 -23.2253)
(-64.4661 73.0433 15.5256)
(101.201 449.272 174.559)
(23.9531 -204.923 -267.041)
(5.70701 255.231 -50.0282)
(-13.9303 -227.438 -111.268)
(601.172 -223.603 185.682)
(13.8559 314.524 15.3636)
(-544.231 -280.476 -344.917)
(3.63137 -457.311 176.424)
(-36.2744 102.023 -11.7173)
(277.196 -529.946 -25.5719)
(157.039 112.476 -134.813)
(-91.832 -393.846 12.4863)
(-560.969 -70.5745 37.7085)
(-206.731 226.173 341.872)
(-272.408 -182.808 328.819)
(206.853 155.616 7.16275)
(-630.601 165.478 -358.428)
(-222.402 302.878 45.186)
(415.482 -566.18 419.163)
(-380.665 -49.5616 -507.775)
(-323.396 -581.447 -65.1703)
(342.256 24.8409 386.103)
(14.4018 -18.6433 263.51)
(-171.901 167.76 -53.281)
(-44.1918 419.457 198.203)
(184.506 -269.13 208.312)
(-74.0578 -199.872 39.6196)
(-478.806 -20.5965 292.802)
(449.679 81.9013 459.385)
(-80.9148 -52.4894 88.4744)
(31.966 -348.367 45.5097)
(-14.5947 68.8095 -483.337)
(269.358 284.364 -256.439)
(-670.967 262.264 180.339)
(118.029 -298.565 -65.0458)
(-55.0839 -667.507 -307.02)
(70.8721 -250.135 304.006)
(-326.604 264.144 470.719)
(272.871 -124.201 340.885)
(-47.5217 255.264 144.35)
(-483.434 -39.901 207.147)
(252.988 -78.1672 -397.963)
(-68.6262 206.784 121.533)
(-475.994 -355.842 195.422)
(-274.771 -48.5923 399.569)
(-412.987 -313.829 -38.0745)
(-447.519 184.855 -504.061)
(-424.698 -414.529 209.45)
(-207.134 -26.2494 121.564)
(115.04 14.1972 31.0778)
(202.783 196.979 25.6021)
(-187.808 -225.876 -188.697)
(-211.911 224.376 295.79)
(-64.5899 -245.359 251.305)
(185.746 -186.187 -35.2563)
(476.072 -232.041 430.806)
(130.025 218.208 -18.8017)
(-385.737 231.089 -891.134)
(267.43 -456.021 356.628)
(96.2888 -449.127 -36.2247)
(245.438 -57.2569 -74.6065)
(268.661 -325.774 44.7771)
(189.394 -603.501 -252.928)
(58.2179 221.582 700.022)
(-21.022 154.445 343.502)
(-145.607 84.8703 70.3385)
(596.05 -199.831 -1076.16)
(12.5358 241.957 -477.275)
(217.936 102.282 -82.4378)
(-233.886 0.357062 -215.764)
(213.174 204.83 345.52)
(506.266 74.91 105.191)
(-205.167 183.777 -179.314)
(199.487 -130.014 329.018)
(-307.268 387.647 271.013)
(-786.378 301.716 2.76983)
(-444.009 -5.84126 194.638)
(42.2332 205.591 49.9027)
(-710.301 0.559904 37.5147)
(-283.373 426.821 -18.7649)
(538.217 -131.262 119.88)
(76.3151 -51.8601 -260.575)
(-546.564 -50.2361 300.11)
(128.002 -277.347 -321.806)
(188.387 512.665 -401.631)
(-63.659 130.366 -102.549)
(-178.372 599.09 -293.05)
(-116.554 -1.83361 -46.5708)
(55.9658 -182.919 -614.366)
(-15.0813 -381.017 292.716)
(15.9314 -205.425 -266.777)
(-644.54 -208.675 738.243)
(-144.476 725.278 -310.104)
(326.777 -508.602 -138.094)
(116.521 74.7903 151.224)
(-241.678 -51.047 -312.421)
(-98.3071 -121.408 677.517)
(-183.374 -134.7 195.909)
(-230.669 207.411 -565.568)
(136.393 182.622 227.902)
(239.517 575.735 -399.068)
(-449.562 375.633 -18.4618)
(-343.035 48.3063 288.447)
(-178.554 627.647 276.709)
(181.013 -186.233 128.377)
(174.812 -33.0186 807.433)
(25.0474 -294.498 -121.126)
(-176.454 -6.57216 109.516)
(-140.987 337.016 -337.147)
(-383.75 -335.085 52.6288)
(-9.89722 -274.196 -346.655)
(175.278 -329.928 -230.04)
(230.078 114.481 -307.586)
(35.2827 248.226 -230.047)
(-439.742 24.741 -162.074)
(-256.035 350.053 355.361)
(-4.6042 -131.518 -332.143)
(-364.421 -525.814 226.836)
(-168.493 532.643 346.453)
(-216.335 545.77 163.077)
(-368.705 377.885 -334.674)
(-761.168 -363.014 -345.444)
(113.849 -409.687 -63.9726)
(178.489 -234.564 -571.135)
(59.8755 43.7209 -53.2246)
(130.212 -108.572 -112.163)
(-95.7393 117.647 -21.5534)
(92.6567 405.706 -187.123)
(-203.228 17.2626 -291.49)
(699.608 -25.1982 146.702)
(1.00266 -125.605 -561.585)
(25.2198 -0.0503099 585.146)
(-11.6568 -637.994 130.444)
(-444.523 -91.439 49.061)
(-233.901 340.768 171.154)
(-135.864 338.309 -623.107)
(-192.056 -110.615 -88.2096)
(16.2288 -303.886 119.981)
(24.6367 21.3746 210.826)
(-123.654 12.9037 408.637)
(371.06 29.3604 -161.022)
(-128.964 -194.158 8.8026)
(26.7889 139.395 -131.632)
(-604.402 465.685 183.741)
(-119.105 216.122 -202.014)
(443.254 -231.179 398.113)
(-26.973 -352.261 164.574)
(-572.474 151.643 224.349)
(-24.9152 11.5087 332.063)
(81.7453 -393.285 5.09553)
(-193.943 793.88 -283.632)
(113.023 -128.928 -330.993)
(-234.857 -250.131 21.8585)
(37.7147 755.904 178.059)
(49.1997 -373.743 641.257)
(-223.263 344.321 122.726)
(-613.788 303.447 149.066)
(-44.741 90.0729 -308.168)
(344.795 -182.393 728.119)
(34.6383 -25.1949 -185.011)
(35.0187 378.702 86.3158)
(7.23393 205.673 654.079)
(400.426 -164.96 -213.145)
(327.595 -363.707 -96.7642)
(-222.218 -391.044 634.871)
(663.477 255.022 -313.304)
(24.0973 -326.573 719.953)
(-605.886 22.3948 255.845)
(-339.275 303.697 -145.226)
(-5.68122 -294.73 -91.078)
(-489.129 -348.281 247.569)
(172.57 -156.804 -94.1885)
(-3.84808 251.92 346.449)
(-1.59458 370.728 -578.275)
(-120.684 468.747 -277.481)
(-131.866 296.423 -3.03818)
(676.679 -240.399 288.606)
(-186.301 122.226 56.5677)
(382.253 -73.8722 85.2152)
(138.016 127.011 342.487)
(282.183 -99.2805 134.345)
(-410.328 336.682 187.075)
(-219.376 -290.233 148.532)
(76.9277 -111.45 -261.687)
(-9.15707 25.7958 -441.162)
(238.077 401.002 -100.933)
(88.3763 -434.353 511.45)
(74.4255 -269.61 -352.182)
(-235.111 -357.433 376.152)
(357.444 -122.045 42.659)
(93.677 -384.261 -155.28)
(-286.95 -427.377 454.398)
(64.0257 -497.653 -84.1624)
(133.277 61.6586 -722.129)
(-183.614 -0.464977 -56.0006)
(-183.857 402.229 489.974)
(154.76 -735.692 483.882)
(-12.2966 165.68 -3.96557)
(-128.098 -363.106 -333.147)
(-224.15 -3.87275 -418.033)
(-616.663 238.285 -42.892)
(-96.0922 197.428 -191.116)
(-159.179 142.059 272.414)
(213.484 270.278 224.534)
(37.936 -445.879 -85.1346)
(-158.203 -121.6 -179.446)
(-255.015 678.469 -210.853)
(31.3992 55.1283 -273.291)
(115.474 285.823 87.5811)
(-32.2252 -85.4908 173.374)
(-51.8506 -751.397 538.5)
(125.628 35.4761 -79.015)
(-277.422 427.625 -188.503)
(57.5651 50.6476 -118.701)
(-47.8149 -107.749 182.667)
(255.159 -232.72 127.783)
(252.551 170.102 16.8899)
(-200.035 -430.158 -82.8507)
(285.237 162.879 -38.451)
(88.3158 446.578 85.3926)
(-80.8091 -127.925 -4.03851)
(-117.585 436.711 212.739)
(241.621 -202.533 65.58)
(298.881 -406.158 -111.381)
(-279.573 -829.331 -744.592)
(-451.441 289.627 272.171)
(-101.495 -66.2884 -3.80058)
(-223.054 -101.17 844.715)
(-20.3737 117.588 351.161)
(19.6371 -265.814 139.863)
(24.2691 -786.31 -215.516)
(214 -390.852 308.5)
(56.0476 75.7433 297.38)
(-267.431 100.99 41.2825)
(-171.463 187.034 320.486)
(-248.342 283.254 -9.96194)
(135.032 -553.562 -91.7079)
(113.147 443.389 122.766)
(458.192 235.555 -105.374)
(-247.215 2.3309 -172.616)
(-403.109 44.7773 -52.3876)
(32.6825 91.5766 -106.147)
(-272.144 258.398 -15.8896)
(-511.938 65.6667 -418.04)
(-75.6915 -158.374 -446.89)
(610.115 -236.691 -401.156)
(219.73 312.867 520.59)
(-143.303 -8.54575 -33.2533)
(371.501 -172.57 38.5911)
(-105.393 340.674 -132.525)
(100.726 -397.454 132.786)
(-185.799 10.2212 -402.346)
(-100.891 -459.198 79.1912)
(46.4527 -122.15 -5.05915)
(-319.538 -270.713 -58.6059)
(59.9245 667.076 16.7914)
(810.811 388.163 99.3216)
(102.04 192.478 -77.7)
(317.57 78.9012 363.511)
(-303.128 -145.524 -496.435)
(209.862 -6.73668 385.23)
(82.6059 -237.165 311.802)
(243.167 145.263 354.566)
(-4.86522 156.382 641.357)
(317.845 508.353 320.224)
(-50.0105 14.451 -44.8025)
(91.256 -260.237 -301.81)
(-66.2997 -697.609 -210.961)
(-5.44176 400.79 103.472)
(-29.7533 126.385 -157.285)
(129.954 -322.516 -121.891)
(-447.475 -56.4017 -135.494)
(-17.4458 163.428 589.566)
(-137.506 266.265 -341.873)
(-402.129 -370.963 613.445)
(254.647 -11.7799 -221.978)
(370.613 172.429 -24.8317)
(-40.4662 -89.0103 46.1106)
(-162.292 51.6087 -433.117)
(557.454 808.608 -189.636)
(-268.921 177.207 -438.083)
(-387.215 37.6753 146.756)
(285.143 -292.701 113.463)
(-183.233 -62.2886 -221.985)
(40.6698 359.102 197.609)
(-28.7521 -127.463 -50.2663)
(-184.157 -90.2 -119.941)