/*--------------------------------*- C++ -*----------------------------------*\
  =========                 |
  \\      /  F ield         | OpenFOAM: The Open Source CFD Toolbox
   \\    /   O peration     | Website:  https://openfoam.org
    \\  /    A nd           | Version:  7
     \\/     M anipulation  |
\*---------------------------------------------------------------------------*/
FoamFile
{
    version     2.0;
    format      ascii;
    class       dictionary;
    object      blockMeshDict;
}

// * * * * * * * * * * * * * * * * * * * * * * * * * * * * * * * * * * * * * //

convertToMeters 1;

vertices // places vertices in coordinate plane
(
    (-0.5 -1 -1)
    (0.5 -1 -1)
    (0.5 1 -1)
    (-0.5 1 -1)
    (-0.5 -1 1)
    (0.5 -1 1)
    (0.5 1 1)
    (-0.5 1 1)
);

blocks
(
    hex (0 1 2 3 4 5 6 7) (1000 1 1) simpleGrading (1 1 1) // gives labels to vertices and #cells in each dim and there sizes?
);

boundary
(
    sides
    {
        type symmetry; // patch is generic type for inlet or outlet NOTE: the sides tags correspond to the boundaries specified in the 0 dict
        faces
        (
            (1 2 6 5)
            (0 4 7 3)
        );
    }
    empty
    {
        type empty; // Which faces do not require a solution, compresses to 1D
        faces
        (
            (0 1 5 4)
            (5 6 7 4)
            (3 7 6 2)
            (0 3 2 1)
        );
    }
);

mergePatchPairs
(
);


// ************************************************************************* //
