/*--------------------------------*- C++ -*----------------------------------*\
  =========                 |
  \\      /  F ield         | OpenFOAM: The Open Source CFD Toolbox
   \\    /   O peration     | Website:  https://openfoam.org
    \\  /    A nd           | Version:  7
     \\/     M anipulation  |
\*---------------------------------------------------------------------------*/
FoamFile
{
    version     2.0;
    format      ascii;
    class       dictionary;
    location    "system";
    object      controlDict;
}
// * * * * * * * * * * * * * * * * * * * * * * * * * * * * * * * * * * * * * //

application     dsmcFoamMod;

startFrom       startTime;

startTime       0;

stopAt          endTime;

endTime         3.6e-3;

deltaT          6e-6;

writeControl    adjustableRunTime;

writeInterval   3.6e-4;

purgeWrite      0;

writeFormat     ascii;

writePrecision  6;

writeCompression off;

timeFormat      general;

timePrecision   6;

runTimeModifiable true;

adjustTimeStep  yes;

maxCo           0.2; // max currant number

maxDeltaT       1;
/*
functions
{
    fieldAverage1
    {
        type            fieldAverage;
        libs            ("libfieldFunctionObjects.so");
        writeControl    writeTime;

        fields
        (
            rhoN
            {
                mean        on;
                prime2Mean  off;
                base        time;
            }
            rhoM
            {
                mean        on;
                prime2Mean  off;
                base        time;
            }
            dsmcRhoN
            {
                mean        on;
                prime2Mean  off;
                base        time;
            }
            momentum
            {
                mean        on;
                prime2Mean  off;
                base        time;
            }
            linearKE
            {
                mean        on;
                prime2Mean  off;
                base        time;
            }
            internalE
            {
                mean        on;
                prime2Mean  off;
                base        time;
            }
            iDof
            {
                mean        on;
                prime2Mean  off;
                base        time;
            }
            q
            {
                mean        on;
                prime2Mean  off;
                base        time;
            }
            fD
            {
                mean        on;
                prime2Mean  off;
                base        time;
            }
        );
    }

    dsmcFields1
    {
        type            dsmcFields;
        libs            ("liblagrangianFunctionObjects.so");
        writeControl    writeTime;
    }
    
}
*/
libs
    (
        "libDSMC_mod.so"
    );
// ************************************************************************* //
