/*--------------------------------*- C++ -*----------------------------------*\
  =========                 |
  \\      /  F ield         | OpenFOAM: The Open Source CFD Toolbox
   \\    /   O peration     | Website:  https://openfoam.org
    \\  /    A nd           | Version:  7
     \\/     M anipulation  |
\*---------------------------------------------------------------------------*/
FoamFile
{
    version     2.0;
    format      ascii;
    class       dictionary;
    location    "system";
    object      dsmcInitialiseDict;
}
// * * * * * * * * * * * * * * * * * * * * * * * * * * * * * * * * * * * * * //
species
{
    species1        N2;
};   

numberDensities
{
    density1          2.6871896E+20;//2.1505E+22;//9.08471e19;
    density2          2.1497517E+19;//2.6882E+21;//2.63556e19;
};

distributions
{
    start1          0;
    stop1           500;
    start2          500;
    stop2           1000;
};

temperature     
{
    temp1        1.2423019E+02;
    temp2        1.5530660E+02;
};

velocity        (0 0 0);


// ************************************************************************* //
