/*--------------------------------*- C++ -*----------------------------------*\
  =========                 |
  \\      /  F ield         | OpenFOAM: The Open Source CFD Toolbox
   \\    /   O peration     | Website:  https://openfoam.org
    \\  /    A nd           | Version:  7
     \\/     M anipulation  |
\*---------------------------------------------------------------------------*/
FoamFile
{
    version     2.0;
    format      ascii;
    class       dictionary;
    location    "system";
    object      dsmcInitialiseDict;
}
// * * * * * * * * * * * * * * * * * * * * * * * * * * * * * * * * * * * * * //
species
{
    species1        N2;
};   

numberDensities
{
    density1          1.226e20;
    density2          4.226e20;
};

distributions
{
    start1          0;
    stop1           500;
    start2          500;
    stop2           1000;
};

temperature     
{
    temp1        300;
    temp2        400;
};

velocity        (0 0 0);


// ************************************************************************* //
